REMARK  Name = ../refined-set-2016/2w8j/2w8j_pocket.pdb
REMARK  240 active torsions:
REMARK  status: ('A' for Active; 'I' for Inactive)
REMARK    1  A    between atoms: _1  and  _3
REMARK    2  A    between atoms: _3  and  _4
REMARK    3  A    between atoms: _3  and  _6
REMARK    4  A    between atoms: _6  and  _7
REMARK    5  A    between atoms: _10  and  _12
REMARK    6  A    between atoms: _12  and  _13
REMARK    7  A    between atoms: _12  and  _15
REMARK    8  A    between atoms: _15  and  _16
REMARK    9  A    between atoms: _21  and  _22
REMARK   10  A    between atoms: _24  and  _26
REMARK   11  A    between atoms: _26  and  _27
REMARK   12  A    between atoms: _26  and  _29
REMARK   13  A    between atoms: _29  and  _30
REMARK   14  A    between atoms: _35  and  _36
REMARK   15  A    between atoms: _38  and  _40
REMARK   16  A    between atoms: _40  and  _41
REMARK   17  A    between atoms: _40  and  _43
REMARK   18  A    between atoms: _43  and  _44
REMARK   19  A    between atoms: _46  and  _48
REMARK   20  A    between atoms: _48  and  _49
REMARK   21  A    between atoms: _48  and  _51
REMARK   22  A    between atoms: _51  and  _52
REMARK   23  A    between atoms: _55  and  _57
REMARK   24  A    between atoms: _57  and  _58
REMARK   25  A    between atoms: _60  and  _62
REMARK   26  A    between atoms: _62  and  _63
REMARK   27  A    between atoms: _62  and  _65
REMARK   28  A    between atoms: _65  and  _66
REMARK   29  A    between atoms: _71  and  _72
REMARK   30  A    between atoms: _74  and  _76
REMARK   31  A    between atoms: _76  and  _77
REMARK   32  A    between atoms: _76  and  _79
REMARK   33  A    between atoms: _79  and  _80
REMARK   34  A    between atoms: _80  and  _81
REMARK   35  A    between atoms: _83  and  _85
REMARK   36  A    between atoms: _85  and  _86
REMARK   37  A    between atoms: _89  and  _91
REMARK   38  A    between atoms: _91  and  _92
REMARK   39  A    between atoms: _91  and  _94
REMARK   40  A    between atoms: _94  and  _95
REMARK   41  A    between atoms: _100  and  _102
REMARK   42  A    between atoms: _102  and  _103
REMARK   43  A    between atoms: _102  and  _105
REMARK   44  A    between atoms: _105  and  _106
REMARK   45  A    between atoms: _109  and  _111
REMARK   46  A    between atoms: _111  and  _112
REMARK   47  A    between atoms: _111  and  _114
REMARK   48  A    between atoms: _114  and  _115
REMARK   49  A    between atoms: _117  and  _119
REMARK   50  A    between atoms: _119  and  _120
REMARK   51  A    between atoms: _119  and  _122
REMARK   52  A    between atoms: _122  and  _123
REMARK   53  A    between atoms: _128  and  _130
REMARK   54  A    between atoms: _130  and  _131
REMARK   55  A    between atoms: _134  and  _136
REMARK   56  A    between atoms: _136  and  _137
REMARK   57  A    between atoms: _136  and  _139
REMARK   58  A    between atoms: _139  and  _140
REMARK   59  A    between atoms: _142  and  _144
REMARK   60  A    between atoms: _144  and  _145
REMARK   61  A    between atoms: _144  and  _147
REMARK   62  A    between atoms: _147  and  _148
REMARK   63  A    between atoms: _151  and  _153
REMARK   64  A    between atoms: _153  and  _154
REMARK   65  A    between atoms: _153  and  _156
REMARK   66  A    between atoms: _156  and  _157
REMARK   67  A    between atoms: _160  and  _162
REMARK   68  A    between atoms: _162  and  _163
REMARK   69  A    between atoms: _162  and  _165
REMARK   70  A    between atoms: _165  and  _166
REMARK   71  A    between atoms: _166  and  _167
REMARK   72  A    between atoms: _170  and  _172
REMARK   73  A    between atoms: _172  and  _173
REMARK   74  A    between atoms: _175  and  _177
REMARK   75  A    between atoms: _177  and  _178
REMARK   76  A    between atoms: _177  and  _180
REMARK   77  A    between atoms: _183  and  _185
REMARK   78  A    between atoms: _185  and  _186
REMARK   79  A    between atoms: _185  and  _188
REMARK   80  A    between atoms: _188  and  _189
REMARK   81  A    between atoms: _194  and  _195
REMARK   82  A    between atoms: _197  and  _199
REMARK   83  A    between atoms: _199  and  _200
REMARK   84  A    between atoms: _199  and  _202
REMARK   85  A    between atoms: _202  and  _203
REMARK   86  A    between atoms: _205  and  _207
REMARK   87  A    between atoms: _207  and  _208
REMARK   88  A    between atoms: _207  and  _210
REMARK   89  A    between atoms: _210  and  _211
REMARK   90  A    between atoms: _211  and  _212
REMARK   91  A    between atoms: _214  and  _216
REMARK   92  A    between atoms: _216  and  _217
REMARK   93  A    between atoms: _216  and  _219
REMARK   94  A    between atoms: _219  and  _220
REMARK   95  A    between atoms: _223  and  _225
REMARK   96  A    between atoms: _225  and  _226
REMARK   97  A    between atoms: _225  and  _228
REMARK   98  A    between atoms: _228  and  _229
REMARK   99  A    between atoms: _229  and  _230
REMARK  100  A    between atoms: _233  and  _235
REMARK  101  A    between atoms: _235  and  _236
REMARK  102  A    between atoms: _239  and  _241
REMARK  103  A    between atoms: _241  and  _242
REMARK  104  A    between atoms: _241  and  _244
REMARK  105  A    between atoms: _244  and  _245
REMARK  106  A    between atoms: _250  and  _252
REMARK  107  A    between atoms: _252  and  _253
REMARK  108  A    between atoms: _252  and  _255
REMARK  109  A    between atoms: _255  and  _256
REMARK  110  A    between atoms: _258  and  _260
REMARK  111  A    between atoms: _260  and  _261
REMARK  112  A    between atoms: _260  and  _263
REMARK  113  A    between atoms: _266  and  _268
REMARK  114  A    between atoms: _268  and  _269
REMARK  115  A    between atoms: _271  and  _273
REMARK  116  A    between atoms: _273  and  _274
REMARK  117  A    between atoms: _273  and  _276
REMARK  118  A    between atoms: _276  and  _277
REMARK  119  A    between atoms: _280  and  _282
REMARK  120  A    between atoms: _282  and  _283
REMARK  121  A    between atoms: _282  and  _285
REMARK  122  A    between atoms: _285  and  _286
REMARK  123  A    between atoms: _292  and  _294
REMARK  124  A    between atoms: _294  and  _295
REMARK  125  A    between atoms: _294  and  _297
REMARK  126  A    between atoms: _297  and  _298
REMARK  127  A    between atoms: _300  and  _302
REMARK  128  A    between atoms: _302  and  _303
REMARK  129  A    between atoms: _302  and  _305
REMARK  130  A    between atoms: _305  and  _306
REMARK  131  A    between atoms: _306  and  _307
REMARK  132  A    between atoms: _307  and  _308
REMARK  133  A    between atoms: _308  and  _309
REMARK  134  A    between atoms: _313  and  _315
REMARK  135  A    between atoms: _315  and  _316
REMARK  136  A    between atoms: _315  and  _318
REMARK  137  A    between atoms: _318  and  _319
REMARK  138  A    between atoms: _322  and  _324
REMARK  139  A    between atoms: _324  and  _325
REMARK  140  A    between atoms: _324  and  _327
REMARK  141  A    between atoms: _330  and  _332
REMARK  142  A    between atoms: _332  and  _333
REMARK  143  A    between atoms: _335  and  _337
REMARK  144  A    between atoms: _337  and  _338
REMARK  145  A    between atoms: _340  and  _342
REMARK  146  A    between atoms: _342  and  _343
REMARK  147  A    between atoms: _342  and  _345
REMARK  148  A    between atoms: _345  and  _346
REMARK  149  A    between atoms: _352  and  _354
REMARK  150  A    between atoms: _354  and  _355
REMARK  151  A    between atoms: _354  and  _357
REMARK  152  A    between atoms: _357  and  _358
REMARK  153  A    between atoms: _361  and  _363
REMARK  154  A    between atoms: _363  and  _364
REMARK  155  A    between atoms: _363  and  _366
REMARK  156  A    between atoms: _366  and  _367
REMARK  157  A    between atoms: _367  and  _368
REMARK  158  A    between atoms: _368  and  _369
REMARK  159  A    between atoms: _378  and  _380
REMARK  160  A    between atoms: _380  and  _381
REMARK  161  A    between atoms: _384  and  _386
REMARK  162  A    between atoms: _386  and  _387
REMARK  163  A    between atoms: _386  and  _389
REMARK  164  A    between atoms: _389  and  _390
REMARK  165  A    between atoms: _390  and  _391
REMARK  166  A    between atoms: _391  and  _392
REMARK  167  A    between atoms: _401  and  _403
REMARK  168  A    between atoms: _403  and  _404
REMARK  169  A    between atoms: _403  and  _406
REMARK  170  A    between atoms: _406  and  _407
REMARK  171  A    between atoms: _410  and  _412
REMARK  172  A    between atoms: _412  and  _413
REMARK  173  A    between atoms: _412  and  _415
REMARK  174  A    between atoms: _415  and  _416
REMARK  175  A    between atoms: _421  and  _423
REMARK  176  A    between atoms: _423  and  _424
REMARK  177  A    between atoms: _426  and  _428
REMARK  178  A    between atoms: _428  and  _429
REMARK  179  A    between atoms: _428  and  _431
REMARK  180  A    between atoms: _431  and  _432
REMARK  181  A    between atoms: _434  and  _436
REMARK  182  A    between atoms: _436  and  _437
REMARK  183  A    between atoms: _436  and  _439
REMARK  184  A    between atoms: _439  and  _440
REMARK  185  A    between atoms: _440  and  _441
REMARK  186  A    between atoms: _441  and  _442
REMARK  187  A    between atoms: _451  and  _453
REMARK  188  A    between atoms: _453  and  _454
REMARK  189  A    between atoms: _453  and  _456
REMARK  190  A    between atoms: _456  and  _457
REMARK  191  A    between atoms: _457  and  _458
REMARK  192  A    between atoms: _460  and  _462
REMARK  193  A    between atoms: _462  and  _463
REMARK  194  A    between atoms: _462  and  _465
REMARK  195  A    between atoms: _465  and  _466
REMARK  196  A    between atoms: _469  and  _471
REMARK  197  A    between atoms: _471  and  _472
REMARK  198  A    between atoms: _471  and  _474
REMARK  199  A    between atoms: _474  and  _475
REMARK  200  A    between atoms: _480  and  _482
REMARK  201  A    between atoms: _482  and  _483
REMARK  202  A    between atoms: _485  and  _487
REMARK  203  A    between atoms: _487  and  _488
REMARK  204  A    between atoms: _487  and  _490
REMARK  205  A    between atoms: _490  and  _491
REMARK  206  A    between atoms: _493  and  _495
REMARK  207  A    between atoms: _495  and  _496
REMARK  208  A    between atoms: _495  and  _498
REMARK  209  A    between atoms: _498  and  _499
REMARK  210  A    between atoms: _499  and  _500
REMARK  211  A    between atoms: _502  and  _504
REMARK  212  A    between atoms: _504  and  _505
REMARK  213  A    between atoms: _504  and  _507
REMARK  214  A    between atoms: _507  and  _508
REMARK  215  A    between atoms: _508  and  _509
REMARK  216  A    between atoms: _509  and  _510
REMARK  217  A    between atoms: _520  and  _521
REMARK  218  A    between atoms: _526  and  _528
REMARK  219  A    between atoms: _528  and  _529
REMARK  220  A    between atoms: _528  and  _531
REMARK  221  A    between atoms: _531  and  _532
REMARK  222  A    between atoms: _537  and  _538
REMARK  223  A    between atoms: _540  and  _542
REMARK  224  A    between atoms: _542  and  _543
REMARK  225  A    between atoms: _542  and  _545
REMARK  226  A    between atoms: _545  and  _546
REMARK  227  A    between atoms: _549  and  _551
REMARK  228  A    between atoms: _551  and  _552
REMARK  229  A    between atoms: _551  and  _554
REMARK  230  A    between atoms: _554  and  _555
REMARK  231  A    between atoms: _561  and  _563
REMARK  232  A    between atoms: _563  and  _564
REMARK  233  A    between atoms: _563  and  _566
REMARK  234  A    between atoms: _566  and  _567
REMARK  235  A    between atoms: _570  and  _572
REMARK  236  A    between atoms: _572  and  _573
REMARK  237  A    between atoms: _576  and  _578
REMARK  238  A    between atoms: _578  and  _579
REMARK  239  A    between atoms: _578  and  _581
REMARK  240  A    between atoms: _581  and  _582
REMARK                            x       y       z     vdW  Elec       q    Type
REMARK                         _______ _______ _______ _____ _____    ______ ____
ROOT
ATOM      1  CA  TYR A   2       8.975  23.342  37.664  0.00  0.00    +0.141 C 
ENDROOT
BRANCH   1   3
ATOM      2  C   THR A   1       6.832  24.327  38.324  0.00  0.00    +0.241 C 
ATOM      3  N   TYR A   2       8.025  23.850  38.678  0.00  0.00    -0.298 N 
ATOM      4  H   TYR A   2       8.292  23.835  39.683  0.00  0.00    +0.150 HD
ATOM      5  O   THR A   1       6.506  24.467  37.140  0.00  0.00    -0.274 OA
BRANCH   2   6
ATOM      6  CA  THR A   1       5.843  24.736  39.416  0.00  0.00    +0.172 C 
BRANCH   6   7
ATOM      7  N   THR A   1       6.248  24.448  40.798  0.00  0.00    -0.236 NA
ATOM      8  H   THR A   1       7.083  24.924  41.197  0.00  0.00    +0.142 HD
ENDBRANCH   6   7
BRANCH   6   9
ATOM      9  CB  THR A   1       5.488  26.228  39.213  0.00  0.00    +0.135 C 
ATOM     10  CG2 THR A   1       4.417  26.684  40.205  0.00  0.00    +0.034 C 
BRANCH   9  11
ATOM     11  OG1 THR A   1       6.671  27.025  39.339  0.00  0.00    -0.383 OA
ATOM     12  HG1 THR A   1       6.440  27.979  39.209  0.00  0.00    +0.210 HD
ENDBRANCH   9  11
ENDBRANCH   6   9
ENDBRANCH   2   6
ENDBRANCH   1   3
BRANCH   1  13
ATOM     13  C   TYR A   2       9.318  24.390  36.578  0.00  0.00    +0.227 C 
ATOM     14  O   TYR A   2       9.589  24.068  35.432  0.00  0.00    -0.286 OA
ENDBRANCH   1  13
BRANCH   1  15
ATOM     15  CB  TYR A   2       8.450  22.014  37.078  0.00  0.00    +0.054 C 
BRANCH  15  16
ATOM     16  CG  TYR A   2       8.151  21.016  38.170  0.00  0.00    -0.020 A 
ATOM     17  CD2 TYR A   2       9.169  20.269  38.746  0.00  0.00    -0.001 A 
ATOM     18  CE2 TYR A   2       8.917  19.379  39.784  0.00  0.00    +0.036 A 
ATOM     19  CZ  TYR A   2       7.627  19.244  40.259  0.00  0.00    +0.134 A 
ATOM     20  CE1 TYR A   2       6.598  19.988  39.708  0.00  0.00    +0.036 A 
ATOM     21  CD1 TYR A   2       6.863  20.869  38.675  0.00  0.00    -0.001 A 
BRANCH  19  22
ATOM     22  OH  TYR A   2       7.384  18.363  41.291  0.00  0.00    -0.506 OA
ATOM     23  HH  TYR A   2       7.013  18.857  42.064  0.00  0.00    +0.292 HD
ENDBRANCH  19  22
ENDBRANCH  15  16
ENDBRANCH   1  15
TORSDOF 9
REMARK  Name = ../refined-set-2016/2w8j/2w8j_pocket.pdb
REMARK  240 active torsions:
REMARK  status: ('A' for Active; 'I' for Inactive)
REMARK    1  A    between atoms: _1  and  _3
REMARK    2  A    between atoms: _3  and  _4
REMARK    3  A    between atoms: _3  and  _6
REMARK    4  A    between atoms: _6  and  _7
REMARK    5  A    between atoms: _10  and  _12
REMARK    6  A    between atoms: _12  and  _13
REMARK    7  A    between atoms: _12  and  _15
REMARK    8  A    between atoms: _15  and  _16
REMARK    9  A    between atoms: _21  and  _22
REMARK   10  A    between atoms: _24  and  _26
REMARK   11  A    between atoms: _26  and  _27
REMARK   12  A    between atoms: _26  and  _29
REMARK   13  A    between atoms: _29  and  _30
REMARK   14  A    between atoms: _35  and  _36
REMARK   15  A    between atoms: _38  and  _40
REMARK   16  A    between atoms: _40  and  _41
REMARK   17  A    between atoms: _40  and  _43
REMARK   18  A    between atoms: _43  and  _44
REMARK   19  A    between atoms: _46  and  _48
REMARK   20  A    between atoms: _48  and  _49
REMARK   21  A    between atoms: _48  and  _51
REMARK   22  A    between atoms: _51  and  _52
REMARK   23  A    between atoms: _55  and  _57
REMARK   24  A    between atoms: _57  and  _58
REMARK   25  A    between atoms: _60  and  _62
REMARK   26  A    between atoms: _62  and  _63
REMARK   27  A    between atoms: _62  and  _65
REMARK   28  A    between atoms: _65  and  _66
REMARK   29  A    between atoms: _71  and  _72
REMARK   30  A    between atoms: _74  and  _76
REMARK   31  A    between atoms: _76  and  _77
REMARK   32  A    between atoms: _76  and  _79
REMARK   33  A    between atoms: _79  and  _80
REMARK   34  A    between atoms: _80  and  _81
REMARK   35  A    between atoms: _83  and  _85
REMARK   36  A    between atoms: _85  and  _86
REMARK   37  A    between atoms: _89  and  _91
REMARK   38  A    between atoms: _91  and  _92
REMARK   39  A    between atoms: _91  and  _94
REMARK   40  A    between atoms: _94  and  _95
REMARK   41  A    between atoms: _100  and  _102
REMARK   42  A    between atoms: _102  and  _103
REMARK   43  A    between atoms: _102  and  _105
REMARK   44  A    between atoms: _105  and  _106
REMARK   45  A    between atoms: _109  and  _111
REMARK   46  A    between atoms: _111  and  _112
REMARK   47  A    between atoms: _111  and  _114
REMARK   48  A    between atoms: _114  and  _115
REMARK   49  A    between atoms: _117  and  _119
REMARK   50  A    between atoms: _119  and  _120
REMARK   51  A    between atoms: _119  and  _122
REMARK   52  A    between atoms: _122  and  _123
REMARK   53  A    between atoms: _128  and  _130
REMARK   54  A    between atoms: _130  and  _131
REMARK   55  A    between atoms: _134  and  _136
REMARK   56  A    between atoms: _136  and  _137
REMARK   57  A    between atoms: _136  and  _139
REMARK   58  A    between atoms: _139  and  _140
REMARK   59  A    between atoms: _142  and  _144
REMARK   60  A    between atoms: _144  and  _145
REMARK   61  A    between atoms: _144  and  _147
REMARK   62  A    between atoms: _147  and  _148
REMARK   63  A    between atoms: _151  and  _153
REMARK   64  A    between atoms: _153  and  _154
REMARK   65  A    between atoms: _153  and  _156
REMARK   66  A    between atoms: _156  and  _157
REMARK   67  A    between atoms: _160  and  _162
REMARK   68  A    between atoms: _162  and  _163
REMARK   69  A    between atoms: _162  and  _165
REMARK   70  A    between atoms: _165  and  _166
REMARK   71  A    between atoms: _166  and  _167
REMARK   72  A    between atoms: _170  and  _172
REMARK   73  A    between atoms: _172  and  _173
REMARK   74  A    between atoms: _175  and  _177
REMARK   75  A    between atoms: _177  and  _178
REMARK   76  A    between atoms: _177  and  _180
REMARK   77  A    between atoms: _183  and  _185
REMARK   78  A    between atoms: _185  and  _186
REMARK   79  A    between atoms: _185  and  _188
REMARK   80  A    between atoms: _188  and  _189
REMARK   81  A    between atoms: _194  and  _195
REMARK   82  A    between atoms: _197  and  _199
REMARK   83  A    between atoms: _199  and  _200
REMARK   84  A    between atoms: _199  and  _202
REMARK   85  A    between atoms: _202  and  _203
REMARK   86  A    between atoms: _205  and  _207
REMARK   87  A    between atoms: _207  and  _208
REMARK   88  A    between atoms: _207  and  _210
REMARK   89  A    between atoms: _210  and  _211
REMARK   90  A    between atoms: _211  and  _212
REMARK   91  A    between atoms: _214  and  _216
REMARK   92  A    between atoms: _216  and  _217
REMARK   93  A    between atoms: _216  and  _219
REMARK   94  A    between atoms: _219  and  _220
REMARK   95  A    between atoms: _223  and  _225
REMARK   96  A    between atoms: _225  and  _226
REMARK   97  A    between atoms: _225  and  _228
REMARK   98  A    between atoms: _228  and  _229
REMARK   99  A    between atoms: _229  and  _230
REMARK  100  A    between atoms: _233  and  _235
REMARK  101  A    between atoms: _235  and  _236
REMARK  102  A    between atoms: _239  and  _241
REMARK  103  A    between atoms: _241  and  _242
REMARK  104  A    between atoms: _241  and  _244
REMARK  105  A    between atoms: _244  and  _245
REMARK  106  A    between atoms: _250  and  _252
REMARK  107  A    between atoms: _252  and  _253
REMARK  108  A    between atoms: _252  and  _255
REMARK  109  A    between atoms: _255  and  _256
REMARK  110  A    between atoms: _258  and  _260
REMARK  111  A    between atoms: _260  and  _261
REMARK  112  A    between atoms: _260  and  _263
REMARK  113  A    between atoms: _266  and  _268
REMARK  114  A    between atoms: _268  and  _269
REMARK  115  A    between atoms: _271  and  _273
REMARK  116  A    between atoms: _273  and  _274
REMARK  117  A    between atoms: _273  and  _276
REMARK  118  A    between atoms: _276  and  _277
REMARK  119  A    between atoms: _280  and  _282
REMARK  120  A    between atoms: _282  and  _283
REMARK  121  A    between atoms: _282  and  _285
REMARK  122  A    between atoms: _285  and  _286
REMARK  123  A    between atoms: _292  and  _294
REMARK  124  A    between atoms: _294  and  _295
REMARK  125  A    between atoms: _294  and  _297
REMARK  126  A    between atoms: _297  and  _298
REMARK  127  A    between atoms: _300  and  _302
REMARK  128  A    between atoms: _302  and  _303
REMARK  129  A    between atoms: _302  and  _305
REMARK  130  A    between atoms: _305  and  _306
REMARK  131  A    between atoms: _306  and  _307
REMARK  132  A    between atoms: _307  and  _308
REMARK  133  A    between atoms: _308  and  _309
REMARK  134  A    between atoms: _313  and  _315
REMARK  135  A    between atoms: _315  and  _316
REMARK  136  A    between atoms: _315  and  _318
REMARK  137  A    between atoms: _318  and  _319
REMARK  138  A    between atoms: _322  and  _324
REMARK  139  A    between atoms: _324  and  _325
REMARK  140  A    between atoms: _324  and  _327
REMARK  141  A    between atoms: _330  and  _332
REMARK  142  A    between atoms: _332  and  _333
REMARK  143  A    between atoms: _335  and  _337
REMARK  144  A    between atoms: _337  and  _338
REMARK  145  A    between atoms: _340  and  _342
REMARK  146  A    between atoms: _342  and  _343
REMARK  147  A    between atoms: _342  and  _345
REMARK  148  A    between atoms: _345  and  _346
REMARK  149  A    between atoms: _352  and  _354
REMARK  150  A    between atoms: _354  and  _355
REMARK  151  A    between atoms: _354  and  _357
REMARK  152  A    between atoms: _357  and  _358
REMARK  153  A    between atoms: _361  and  _363
REMARK  154  A    between atoms: _363  and  _364
REMARK  155  A    between atoms: _363  and  _366
REMARK  156  A    between atoms: _366  and  _367
REMARK  157  A    between atoms: _367  and  _368
REMARK  158  A    between atoms: _368  and  _369
REMARK  159  A    between atoms: _378  and  _380
REMARK  160  A    between atoms: _380  and  _381
REMARK  161  A    between atoms: _384  and  _386
REMARK  162  A    between atoms: _386  and  _387
REMARK  163  A    between atoms: _386  and  _389
REMARK  164  A    between atoms: _389  and  _390
REMARK  165  A    between atoms: _390  and  _391
REMARK  166  A    between atoms: _391  and  _392
REMARK  167  A    between atoms: _401  and  _403
REMARK  168  A    between atoms: _403  and  _404
REMARK  169  A    between atoms: _403  and  _406
REMARK  170  A    between atoms: _406  and  _407
REMARK  171  A    between atoms: _410  and  _412
REMARK  172  A    between atoms: _412  and  _413
REMARK  173  A    between atoms: _412  and  _415
REMARK  174  A    between atoms: _415  and  _416
REMARK  175  A    between atoms: _421  and  _423
REMARK  176  A    between atoms: _423  and  _424
REMARK  177  A    between atoms: _426  and  _428
REMARK  178  A    between atoms: _428  and  _429
REMARK  179  A    between atoms: _428  and  _431
REMARK  180  A    between atoms: _431  and  _432
REMARK  181  A    between atoms: _434  and  _436
REMARK  182  A    between atoms: _436  and  _437
REMARK  183  A    between atoms: _436  and  _439
REMARK  184  A    between atoms: _439  and  _440
REMARK  185  A    between atoms: _440  and  _441
REMARK  186  A    between atoms: _441  and  _442
REMARK  187  A    between atoms: _451  and  _453
REMARK  188  A    between atoms: _453  and  _454
REMARK  189  A    between atoms: _453  and  _456
REMARK  190  A    between atoms: _456  and  _457
REMARK  191  A    between atoms: _457  and  _458
REMARK  192  A    between atoms: _460  and  _462
REMARK  193  A    between atoms: _462  and  _463
REMARK  194  A    between atoms: _462  and  _465
REMARK  195  A    between atoms: _465  and  _466
REMARK  196  A    between atoms: _469  and  _471
REMARK  197  A    between atoms: _471  and  _472
REMARK  198  A    between atoms: _471  and  _474
REMARK  199  A    between atoms: _474  and  _475
REMARK  200  A    between atoms: _480  and  _482
REMARK  201  A    between atoms: _482  and  _483
REMARK  202  A    between atoms: _485  and  _487
REMARK  203  A    between atoms: _487  and  _488
REMARK  204  A    between atoms: _487  and  _490
REMARK  205  A    between atoms: _490  and  _491
REMARK  206  A    between atoms: _493  and  _495
REMARK  207  A    between atoms: _495  and  _496
REMARK  208  A    between atoms: _495  and  _498
REMARK  209  A    between atoms: _498  and  _499
REMARK  210  A    between atoms: _499  and  _500
REMARK  211  A    between atoms: _502  and  _504
REMARK  212  A    between atoms: _504  and  _505
REMARK  213  A    between atoms: _504  and  _507
REMARK  214  A    between atoms: _507  and  _508
REMARK  215  A    between atoms: _508  and  _509
REMARK  216  A    between atoms: _509  and  _510
REMARK  217  A    between atoms: _520  and  _521
REMARK  218  A    between atoms: _526  and  _528
REMARK  219  A    between atoms: _528  and  _529
REMARK  220  A    between atoms: _528  and  _531
REMARK  221  A    between atoms: _531  and  _532
REMARK  222  A    between atoms: _537  and  _538
REMARK  223  A    between atoms: _540  and  _542
REMARK  224  A    between atoms: _542  and  _543
REMARK  225  A    between atoms: _542  and  _545
REMARK  226  A    between atoms: _545  and  _546
REMARK  227  A    between atoms: _549  and  _551
REMARK  228  A    between atoms: _551  and  _552
REMARK  229  A    between atoms: _551  and  _554
REMARK  230  A    between atoms: _554  and  _555
REMARK  231  A    between atoms: _561  and  _563
REMARK  232  A    between atoms: _563  and  _564
REMARK  233  A    between atoms: _563  and  _566
REMARK  234  A    between atoms: _566  and  _567
REMARK  235  A    between atoms: _570  and  _572
REMARK  236  A    between atoms: _572  and  _573
REMARK  237  A    between atoms: _576  and  _578
REMARK  238  A    between atoms: _578  and  _579
REMARK  239  A    between atoms: _578  and  _581
REMARK  240  A    between atoms: _581  and  _582
REMARK                            x       y       z     vdW  Elec       q    Type
REMARK                         _______ _______ _______ _____ _____    ______ ____
ROOT
ATOM      1  CG  TYR A   1      13.666  23.828  36.591  0.00  0.00    -0.020 A 
ATOM      2  CD2 TYR A   1      13.524  23.473  37.926  0.00  0.00    -0.001 A 
ATOM      3  CE2 TYR A   1      13.092  22.206  38.289  0.00  0.00    +0.036 A 
ATOM      4  CZ  TYR A   1      12.835  21.270  37.314  0.00  0.00    +0.134 A 
ATOM      5  CE1 TYR A   1      12.972  21.600  35.984  0.00  0.00    +0.036 A 
ATOM      6  CD1 TYR A   1      13.391  22.869  35.631  0.00  0.00    -0.001 A 
ENDROOT
BRANCH   4   7
ATOM      7  OH  TYR A   1      12.430  20.009  37.680  0.00  0.00    -0.506 OA
ATOM      8  HH  TYR A   1      11.535  19.827  37.298  0.00  0.00    +0.292 HD
ENDBRANCH   4   7
BRANCH   1   9
ATOM      9  CB  TYR A   1      14.163  25.213  36.194  0.00  0.00    +0.051 C 
BRANCH   9  10
ATOM     10  CA  TYR A   1      13.327  26.372  36.717  0.00  0.00    +0.137 C 
BRANCH  10  11
ATOM     11  N   TYR A   1      11.992  26.303  36.149  0.00  0.00    -0.239 NA
ATOM     12  H   TYR A   1      11.753  25.518  35.509  0.00  0.00    +0.142 HD
ENDBRANCH  10  11
BRANCH  10  13
ATOM     13  C   TYR A   1      14.066  27.685  36.455  0.00  0.00    +0.224 C 
ATOM     14  O   TYR A   1      14.808  28.168  37.311  0.00  0.00    -0.287 OA
ENDBRANCH  10  13
ENDBRANCH   9  10
ENDBRANCH   1   9
TORSDOF 5
REMARK  Name = ../refined-set-2016/2w8j/2w8j_pocket.pdb
REMARK  240 active torsions:
REMARK  status: ('A' for Active; 'I' for Inactive)
REMARK    1  A    between atoms: _1  and  _3
REMARK    2  A    between atoms: _3  and  _4
REMARK    3  A    between atoms: _3  and  _6
REMARK    4  A    between atoms: _6  and  _7
REMARK    5  A    between atoms: _10  and  _12
REMARK    6  A    between atoms: _12  and  _13
REMARK    7  A    between atoms: _12  and  _15
REMARK    8  A    between atoms: _15  and  _16
REMARK    9  A    between atoms: _21  and  _22
REMARK   10  A    between atoms: _24  and  _26
REMARK   11  A    between atoms: _26  and  _27
REMARK   12  A    between atoms: _26  and  _29
REMARK   13  A    between atoms: _29  and  _30
REMARK   14  A    between atoms: _35  and  _36
REMARK   15  A    between atoms: _38  and  _40
REMARK   16  A    between atoms: _40  and  _41
REMARK   17  A    between atoms: _40  and  _43
REMARK   18  A    between atoms: _43  and  _44
REMARK   19  A    between atoms: _46  and  _48
REMARK   20  A    between atoms: _48  and  _49
REMARK   21  A    between atoms: _48  and  _51
REMARK   22  A    between atoms: _51  and  _52
REMARK   23  A    between atoms: _55  and  _57
REMARK   24  A    between atoms: _57  and  _58
REMARK   25  A    between atoms: _60  and  _62
REMARK   26  A    between atoms: _62  and  _63
REMARK   27  A    between atoms: _62  and  _65
REMARK   28  A    between atoms: _65  and  _66
REMARK   29  A    between atoms: _71  and  _72
REMARK   30  A    between atoms: _74  and  _76
REMARK   31  A    between atoms: _76  and  _77
REMARK   32  A    between atoms: _76  and  _79
REMARK   33  A    between atoms: _79  and  _80
REMARK   34  A    between atoms: _80  and  _81
REMARK   35  A    between atoms: _83  and  _85
REMARK   36  A    between atoms: _85  and  _86
REMARK   37  A    between atoms: _89  and  _91
REMARK   38  A    between atoms: _91  and  _92
REMARK   39  A    between atoms: _91  and  _94
REMARK   40  A    between atoms: _94  and  _95
REMARK   41  A    between atoms: _100  and  _102
REMARK   42  A    between atoms: _102  and  _103
REMARK   43  A    between atoms: _102  and  _105
REMARK   44  A    between atoms: _105  and  _106
REMARK   45  A    between atoms: _109  and  _111
REMARK   46  A    between atoms: _111  and  _112
REMARK   47  A    between atoms: _111  and  _114
REMARK   48  A    between atoms: _114  and  _115
REMARK   49  A    between atoms: _117  and  _119
REMARK   50  A    between atoms: _119  and  _120
REMARK   51  A    between atoms: _119  and  _122
REMARK   52  A    between atoms: _122  and  _123
REMARK   53  A    between atoms: _128  and  _130
REMARK   54  A    between atoms: _130  and  _131
REMARK   55  A    between atoms: _134  and  _136
REMARK   56  A    between atoms: _136  and  _137
REMARK   57  A    between atoms: _136  and  _139
REMARK   58  A    between atoms: _139  and  _140
REMARK   59  A    between atoms: _142  and  _144
REMARK   60  A    between atoms: _144  and  _145
REMARK   61  A    between atoms: _144  and  _147
REMARK   62  A    between atoms: _147  and  _148
REMARK   63  A    between atoms: _151  and  _153
REMARK   64  A    between atoms: _153  and  _154
REMARK   65  A    between atoms: _153  and  _156
REMARK   66  A    between atoms: _156  and  _157
REMARK   67  A    between atoms: _160  and  _162
REMARK   68  A    between atoms: _162  and  _163
REMARK   69  A    between atoms: _162  and  _165
REMARK   70  A    between atoms: _165  and  _166
REMARK   71  A    between atoms: _166  and  _167
REMARK   72  A    between atoms: _170  and  _172
REMARK   73  A    between atoms: _172  and  _173
REMARK   74  A    between atoms: _175  and  _177
REMARK   75  A    between atoms: _177  and  _178
REMARK   76  A    between atoms: _177  and  _180
REMARK   77  A    between atoms: _183  and  _185
REMARK   78  A    between atoms: _185  and  _186
REMARK   79  A    between atoms: _185  and  _188
REMARK   80  A    between atoms: _188  and  _189
REMARK   81  A    between atoms: _194  and  _195
REMARK   82  A    between atoms: _197  and  _199
REMARK   83  A    between atoms: _199  and  _200
REMARK   84  A    between atoms: _199  and  _202
REMARK   85  A    between atoms: _202  and  _203
REMARK   86  A    between atoms: _205  and  _207
REMARK   87  A    between atoms: _207  and  _208
REMARK   88  A    between atoms: _207  and  _210
REMARK   89  A    between atoms: _210  and  _211
REMARK   90  A    between atoms: _211  and  _212
REMARK   91  A    between atoms: _214  and  _216
REMARK   92  A    between atoms: _216  and  _217
REMARK   93  A    between atoms: _216  and  _219
REMARK   94  A    between atoms: _219  and  _220
REMARK   95  A    between atoms: _223  and  _225
REMARK   96  A    between atoms: _225  and  _226
REMARK   97  A    between atoms: _225  and  _228
REMARK   98  A    between atoms: _228  and  _229
REMARK   99  A    between atoms: _229  and  _230
REMARK  100  A    between atoms: _233  and  _235
REMARK  101  A    between atoms: _235  and  _236
REMARK  102  A    between atoms: _239  and  _241
REMARK  103  A    between atoms: _241  and  _242
REMARK  104  A    between atoms: _241  and  _244
REMARK  105  A    between atoms: _244  and  _245
REMARK  106  A    between atoms: _250  and  _252
REMARK  107  A    between atoms: _252  and  _253
REMARK  108  A    between atoms: _252  and  _255
REMARK  109  A    between atoms: _255  and  _256
REMARK  110  A    between atoms: _258  and  _260
REMARK  111  A    between atoms: _260  and  _261
REMARK  112  A    between atoms: _260  and  _263
REMARK  113  A    between atoms: _266  and  _268
REMARK  114  A    between atoms: _268  and  _269
REMARK  115  A    between atoms: _271  and  _273
REMARK  116  A    between atoms: _273  and  _274
REMARK  117  A    between atoms: _273  and  _276
REMARK  118  A    between atoms: _276  and  _277
REMARK  119  A    between atoms: _280  and  _282
REMARK  120  A    between atoms: _282  and  _283
REMARK  121  A    between atoms: _282  and  _285
REMARK  122  A    between atoms: _285  and  _286
REMARK  123  A    between atoms: _292  and  _294
REMARK  124  A    between atoms: _294  and  _295
REMARK  125  A    between atoms: _294  and  _297
REMARK  126  A    between atoms: _297  and  _298
REMARK  127  A    between atoms: _300  and  _302
REMARK  128  A    between atoms: _302  and  _303
REMARK  129  A    between atoms: _302  and  _305
REMARK  130  A    between atoms: _305  and  _306
REMARK  131  A    between atoms: _306  and  _307
REMARK  132  A    between atoms: _307  and  _308
REMARK  133  A    between atoms: _308  and  _309
REMARK  134  A    between atoms: _313  and  _315
REMARK  135  A    between atoms: _315  and  _316
REMARK  136  A    between atoms: _315  and  _318
REMARK  137  A    between atoms: _318  and  _319
REMARK  138  A    between atoms: _322  and  _324
REMARK  139  A    between atoms: _324  and  _325
REMARK  140  A    between atoms: _324  and  _327
REMARK  141  A    between atoms: _330  and  _332
REMARK  142  A    between atoms: _332  and  _333
REMARK  143  A    between atoms: _335  and  _337
REMARK  144  A    between atoms: _337  and  _338
REMARK  145  A    between atoms: _340  and  _342
REMARK  146  A    between atoms: _342  and  _343
REMARK  147  A    between atoms: _342  and  _345
REMARK  148  A    between atoms: _345  and  _346
REMARK  149  A    between atoms: _352  and  _354
REMARK  150  A    between atoms: _354  and  _355
REMARK  151  A    between atoms: _354  and  _357
REMARK  152  A    between atoms: _357  and  _358
REMARK  153  A    between atoms: _361  and  _363
REMARK  154  A    between atoms: _363  and  _364
REMARK  155  A    between atoms: _363  and  _366
REMARK  156  A    between atoms: _366  and  _367
REMARK  157  A    between atoms: _367  and  _368
REMARK  158  A    between atoms: _368  and  _369
REMARK  159  A    between atoms: _378  and  _380
REMARK  160  A    between atoms: _380  and  _381
REMARK  161  A    between atoms: _384  and  _386
REMARK  162  A    between atoms: _386  and  _387
REMARK  163  A    between atoms: _386  and  _389
REMARK  164  A    between atoms: _389  and  _390
REMARK  165  A    between atoms: _390  and  _391
REMARK  166  A    between atoms: _391  and  _392
REMARK  167  A    between atoms: _401  and  _403
REMARK  168  A    between atoms: _403  and  _404
REMARK  169  A    between atoms: _403  and  _406
REMARK  170  A    between atoms: _406  and  _407
REMARK  171  A    between atoms: _410  and  _412
REMARK  172  A    between atoms: _412  and  _413
REMARK  173  A    between atoms: _412  and  _415
REMARK  174  A    between atoms: _415  and  _416
REMARK  175  A    between atoms: _421  and  _423
REMARK  176  A    between atoms: _423  and  _424
REMARK  177  A    between atoms: _426  and  _428
REMARK  178  A    between atoms: _428  and  _429
REMARK  179  A    between atoms: _428  and  _431
REMARK  180  A    between atoms: _431  and  _432
REMARK  181  A    between atoms: _434  and  _436
REMARK  182  A    between atoms: _436  and  _437
REMARK  183  A    between atoms: _436  and  _439
REMARK  184  A    between atoms: _439  and  _440
REMARK  185  A    between atoms: _440  and  _441
REMARK  186  A    between atoms: _441  and  _442
REMARK  187  A    between atoms: _451  and  _453
REMARK  188  A    between atoms: _453  and  _454
REMARK  189  A    between atoms: _453  and  _456
REMARK  190  A    between atoms: _456  and  _457
REMARK  191  A    between atoms: _457  and  _458
REMARK  192  A    between atoms: _460  and  _462
REMARK  193  A    between atoms: _462  and  _463
REMARK  194  A    between atoms: _462  and  _465
REMARK  195  A    between atoms: _465  and  _466
REMARK  196  A    between atoms: _469  and  _471
REMARK  197  A    between atoms: _471  and  _472
REMARK  198  A    between atoms: _471  and  _474
REMARK  199  A    between atoms: _474  and  _475
REMARK  200  A    between atoms: _480  and  _482
REMARK  201  A    between atoms: _482  and  _483
REMARK  202  A    between atoms: _485  and  _487
REMARK  203  A    between atoms: _487  and  _488
REMARK  204  A    between atoms: _487  and  _490
REMARK  205  A    between atoms: _490  and  _491
REMARK  206  A    between atoms: _493  and  _495
REMARK  207  A    between atoms: _495  and  _496
REMARK  208  A    between atoms: _495  and  _498
REMARK  209  A    between atoms: _498  and  _499
REMARK  210  A    between atoms: _499  and  _500
REMARK  211  A    between atoms: _502  and  _504
REMARK  212  A    between atoms: _504  and  _505
REMARK  213  A    between atoms: _504  and  _507
REMARK  214  A    between atoms: _507  and  _508
REMARK  215  A    between atoms: _508  and  _509
REMARK  216  A    between atoms: _509  and  _510
REMARK  217  A    between atoms: _520  and  _521
REMARK  218  A    between atoms: _526  and  _528
REMARK  219  A    between atoms: _528  and  _529
REMARK  220  A    between atoms: _528  and  _531
REMARK  221  A    between atoms: _531  and  _532
REMARK  222  A    between atoms: _537  and  _538
REMARK  223  A    between atoms: _540  and  _542
REMARK  224  A    between atoms: _542  and  _543
REMARK  225  A    between atoms: _542  and  _545
REMARK  226  A    between atoms: _545  and  _546
REMARK  227  A    between atoms: _549  and  _551
REMARK  228  A    between atoms: _551  and  _552
REMARK  229  A    between atoms: _551  and  _554
REMARK  230  A    between atoms: _554  and  _555
REMARK  231  A    between atoms: _561  and  _563
REMARK  232  A    between atoms: _563  and  _564
REMARK  233  A    between atoms: _563  and  _566
REMARK  234  A    between atoms: _566  and  _567
REMARK  235  A    between atoms: _570  and  _572
REMARK  236  A    between atoms: _572  and  _573
REMARK  237  A    between atoms: _576  and  _578
REMARK  238  A    between atoms: _578  and  _579
REMARK  239  A    between atoms: _578  and  _581
REMARK  240  A    between atoms: _581  and  _582
REMARK                            x       y       z     vdW  Elec       q    Type
REMARK                         _______ _______ _______ _____ _____    ______ ____
ROOT
ATOM      1  C   TYR A   4       4.571  12.688  24.862  0.00  0.00    +0.241 C 
ATOM      2  O   TYR A   4       4.951  11.518  24.740  0.00  0.00    -0.273 OA
ATOM      3  N   MET A   5       4.141  13.421  23.839  0.00  0.00    -0.297 N 
ATOM      4  H   MET A   5       3.848  14.404  24.010  0.00  0.00    +0.150 HD
ENDROOT
BRANCH   3   5
ATOM      5  CA  MET A   5       4.067  12.881  22.469  0.00  0.00    +0.149 C 
BRANCH   5   6
ATOM      6  C   MET A   5       5.438  12.653  21.826  0.00  0.00    +0.241 C 
ATOM      7  N   ALA A   6       6.430  13.456  22.202  0.00  0.00    -0.297 N 
ATOM      8  H   ALA A   6       6.229  14.267  22.821  0.00  0.00    +0.150 HD
ATOM      9  O   MET A   5       5.594  11.754  21.001  0.00  0.00    -0.273 OA
BRANCH   7  10
ATOM     10  CA  ALA A   6       7.801  13.211  21.754  0.00  0.00    +0.149 C 
ATOM     11  CB  ALA A   6       8.733  14.344  22.205  0.00  0.00    +0.031 C 
BRANCH  10  12
ATOM     12  C   ALA A   6       8.288  11.837  22.260  0.00  0.00    +0.241 C 
ATOM     13  N   ASN A   7       8.109  11.556  23.550  0.00  0.00    -0.297 N 
ATOM     14  H   ASN A   7       7.689  12.267  24.182  0.00  0.00    +0.150 HD
ATOM     15  O   ALA A   6       8.830  11.046  21.493  0.00  0.00    -0.273 OA
BRANCH  13  16
ATOM     16  CA  ASN A   7       8.505  10.239  24.085  0.00  0.00    +0.158 C 
BRANCH  16  17
ATOM     17  C   ASN A   7       7.656   9.099  23.498  0.00  0.00    +0.241 C 
ATOM     18  N   LEU A   8       6.342   9.303  23.467  0.00  0.00    -0.298 N 
ATOM     19  H   LEU A   8       5.958  10.184  23.865  0.00  0.00    +0.150 HD
ATOM     20  O   ASN A   7       8.186   8.073  23.057  0.00  0.00    -0.273 OA
BRANCH  18  21
ATOM     21  CA  LEU A   8       5.424   8.324  22.890  0.00  0.00    +0.137 C 
BRANCH  21  22
ATOM     22  C   LEU A   8       5.852   7.959  21.472  0.00  0.00    +0.227 C 
ATOM     23  O   LEU A   8       5.942   6.777  21.119  0.00  0.00    -0.286 OA
ENDBRANCH  21  22
BRANCH  21  24
ATOM     24  CB  LEU A   8       3.998   8.889  22.837  0.00  0.00    +0.028 C 
BRANCH  24  25
ATOM     25  CG  LEU A   8       2.887   7.911  22.429  0.00  0.00    +0.002 C 
ATOM     26  CD2 LEU A   8       2.454   7.070  23.603  0.00  0.00    +0.000 C 
ATOM     27  CD1 LEU A   8       1.679   8.685  21.849  0.00  0.00    +0.000 C 
ENDBRANCH  24  25
ENDBRANCH  21  24
ENDBRANCH  18  21
ENDBRANCH  16  17
BRANCH  16  28
ATOM     28  CB  ASN A   7       8.453  10.213  25.620  0.00  0.00    +0.114 C 
BRANCH  28  29
ATOM     29  CG  ASN A   7       9.764  10.683  26.261  0.00  0.00    +0.222 C 
ATOM     30  ND2 ASN A   7       9.675  11.292  27.450  0.00  0.00    -0.329 N 
ATOM     31 HD21 ASN A   7      10.538  11.596  27.944  0.00  0.00    +0.145 HD
ATOM     32 HD22 ASN A   7       8.743  11.461  27.879  0.00  0.00    +0.145 HD
ATOM     33  OD1 ASN A   7      10.844  10.458  25.707  0.00  0.00    -0.275 OA
ENDBRANCH  28  29
ENDBRANCH  16  28
ENDBRANCH  13  16
ENDBRANCH  10  12
ENDBRANCH   7  10
ENDBRANCH   5   6
BRANCH   5  34
ATOM     34  CB  MET A   5       3.173  13.769  21.581  0.00  0.00    +0.041 C 
BRANCH  34  35
ATOM     35  CG  MET A   5       1.704  13.614  21.918  0.00  0.00    +0.060 C 
BRANCH  35  36
ATOM     36  SD  MET A   5       0.647  14.845  21.157  0.00  0.00    -0.139 S 
ATOM     37  CE  MET A   5       0.537  14.212  19.491  0.00  0.00    +0.069 C 
ENDBRANCH  35  36
ENDBRANCH  34  35
ENDBRANCH   5  34
ENDBRANCH   3   5
BRANCH   1  38
ATOM     38  CA  TYR A   4       4.565  13.374  26.241  0.00  0.00    +0.153 C 
BRANCH  38  40
ATOM     39  C   GLY A   3       6.352  14.911  25.620  0.00  0.00    +0.243 C 
ATOM     40  N   TYR A   4       5.147  14.707  26.143  0.00  0.00    -0.297 N 
ATOM     41  H   TYR A   4       4.604  15.522  26.492  0.00  0.00    +0.150 HD
ATOM     42  O   GLY A   3       7.072  14.001  25.205  0.00  0.00    -0.273 OA
BRANCH  39  43
ATOM     43  CA  GLY A   3       6.799  16.365  25.530  0.00  0.00    +0.176 C 
BRANCH  43  45
ATOM     44  C   THR A   2       5.144  17.072  23.873  0.00  0.00    +0.243 C 
ATOM     45  N   GLY A   3       5.730  17.239  25.059  0.00  0.00    -0.295 N 
ATOM     46  H   GLY A   3       5.414  18.019  25.670  0.00  0.00    +0.150 HD
ATOM     47  O   THR A   2       5.568  16.276  23.023  0.00  0.00    -0.273 OA
BRANCH  44  48
ATOM     48  CA  THR A   2       3.883  17.909  23.607  0.00  0.00    +0.176 C 
BRANCH  48  51
ATOM     49  C   SER A   1       3.127  19.086  21.578  0.00  0.00    +0.241 C 
ATOM     50  O   SER A   1       2.592  19.987  22.209  0.00  0.00    -0.274 OA
ATOM     51  N   THR A   2       3.646  18.003  22.156  0.00  0.00    -0.295 N 
ATOM     52  H   THR A   2       3.894  17.190  21.557  0.00  0.00    +0.150 HD
BRANCH  49  53
ATOM     53  CA  SER A   1       3.202  19.186  20.033  0.00  0.00    +0.174 C 
BRANCH  53  54
ATOM     54  N   SER A   1       4.152  18.280  19.387  0.00  0.00    -0.236 NA
ATOM     55  H   SER A   1       3.809  17.442  18.875  0.00  0.00    +0.142 HD
ENDBRANCH  53  54
BRANCH  53  56
ATOM     56  CB  SER A   1       1.827  19.071  19.388  0.00  0.00    +0.163 C 
BRANCH  56  57
ATOM     57  OG  SER A   1       1.893  19.553  18.049  0.00  0.00    -0.380 OA
ATOM     58  H   SER A   1       1.000  19.479  17.628  0.00  0.00    +0.211 HD
ENDBRANCH  56  57
ENDBRANCH  53  56
ENDBRANCH  49  53
ENDBRANCH  48  51
BRANCH  48  59
ATOM     59  CB  THR A   2       2.711  17.251  24.377  0.00  0.00    +0.137 C 
ATOM     60  CG2 THR A   2       1.383  17.982  24.127  0.00  0.00    +0.034 C 
BRANCH  59  61
ATOM     61  OG1 THR A   2       2.575  15.885  23.980  0.00  0.00    -0.382 OA
ATOM     62  HG1 THR A   2       1.825  15.472  24.476  0.00  0.00    +0.210 HD
ENDBRANCH  59  61
ENDBRANCH  48  59
ENDBRANCH  44  48
ENDBRANCH  43  45
ENDBRANCH  39  43
ENDBRANCH  38  40
BRANCH  38  63
ATOM     63  CB  TYR A   4       3.151  13.458  26.843  0.00  0.00    +0.055 C 
BRANCH  63  64
ATOM     64  CG  TYR A   4       2.411  12.147  26.895  0.00  0.00    -0.020 A 
ATOM     65  CD2 TYR A   4       2.339  11.407  28.065  0.00  0.00    -0.001 A 
ATOM     66  CE2 TYR A   4       1.663  10.176  28.097  0.00  0.00    +0.036 A 
ATOM     67  CZ  TYR A   4       1.071   9.695  26.929  0.00  0.00    +0.134 A 
ATOM     68  CE1 TYR A   4       1.121  10.419  25.769  0.00  0.00    +0.036 A 
ATOM     69  CD1 TYR A   4       1.803  11.631  25.747  0.00  0.00    -0.001 A 
BRANCH  67  70
ATOM     70  OH  TYR A   4       0.410   8.502  26.934  0.00  0.00    -0.506 OA
ATOM     71  HH  TYR A   4       0.462   8.101  27.838  0.00  0.00    +0.292 HD
ENDBRANCH  67  70
ENDBRANCH  63  64
ENDBRANCH  38  63
ENDBRANCH   1  38
TORSDOF 30
REMARK  Name = ../refined-set-2016/2w8j/2w8j_pocket.pdb
REMARK  240 active torsions:
REMARK  status: ('A' for Active; 'I' for Inactive)
REMARK    1  A    between atoms: _1  and  _3
REMARK    2  A    between atoms: _3  and  _4
REMARK    3  A    between atoms: _3  and  _6
REMARK    4  A    between atoms: _6  and  _7
REMARK    5  A    between atoms: _10  and  _12
REMARK    6  A    between atoms: _12  and  _13
REMARK    7  A    between atoms: _12  and  _15
REMARK    8  A    between atoms: _15  and  _16
REMARK    9  A    between atoms: _21  and  _22
REMARK   10  A    between atoms: _24  and  _26
REMARK   11  A    between atoms: _26  and  _27
REMARK   12  A    between atoms: _26  and  _29
REMARK   13  A    between atoms: _29  and  _30
REMARK   14  A    between atoms: _35  and  _36
REMARK   15  A    between atoms: _38  and  _40
REMARK   16  A    between atoms: _40  and  _41
REMARK   17  A    between atoms: _40  and  _43
REMARK   18  A    between atoms: _43  and  _44
REMARK   19  A    between atoms: _46  and  _48
REMARK   20  A    between atoms: _48  and  _49
REMARK   21  A    between atoms: _48  and  _51
REMARK   22  A    between atoms: _51  and  _52
REMARK   23  A    between atoms: _55  and  _57
REMARK   24  A    between atoms: _57  and  _58
REMARK   25  A    between atoms: _60  and  _62
REMARK   26  A    between atoms: _62  and  _63
REMARK   27  A    between atoms: _62  and  _65
REMARK   28  A    between atoms: _65  and  _66
REMARK   29  A    between atoms: _71  and  _72
REMARK   30  A    between atoms: _74  and  _76
REMARK   31  A    between atoms: _76  and  _77
REMARK   32  A    between atoms: _76  and  _79
REMARK   33  A    between atoms: _79  and  _80
REMARK   34  A    between atoms: _80  and  _81
REMARK   35  A    between atoms: _83  and  _85
REMARK   36  A    between atoms: _85  and  _86
REMARK   37  A    between atoms: _89  and  _91
REMARK   38  A    between atoms: _91  and  _92
REMARK   39  A    between atoms: _91  and  _94
REMARK   40  A    between atoms: _94  and  _95
REMARK   41  A    between atoms: _100  and  _102
REMARK   42  A    between atoms: _102  and  _103
REMARK   43  A    between atoms: _102  and  _105
REMARK   44  A    between atoms: _105  and  _106
REMARK   45  A    between atoms: _109  and  _111
REMARK   46  A    between atoms: _111  and  _112
REMARK   47  A    between atoms: _111  and  _114
REMARK   48  A    between atoms: _114  and  _115
REMARK   49  A    between atoms: _117  and  _119
REMARK   50  A    between atoms: _119  and  _120
REMARK   51  A    between atoms: _119  and  _122
REMARK   52  A    between atoms: _122  and  _123
REMARK   53  A    between atoms: _128  and  _130
REMARK   54  A    between atoms: _130  and  _131
REMARK   55  A    between atoms: _134  and  _136
REMARK   56  A    between atoms: _136  and  _137
REMARK   57  A    between atoms: _136  and  _139
REMARK   58  A    between atoms: _139  and  _140
REMARK   59  A    between atoms: _142  and  _144
REMARK   60  A    between atoms: _144  and  _145
REMARK   61  A    between atoms: _144  and  _147
REMARK   62  A    between atoms: _147  and  _148
REMARK   63  A    between atoms: _151  and  _153
REMARK   64  A    between atoms: _153  and  _154
REMARK   65  A    between atoms: _153  and  _156
REMARK   66  A    between atoms: _156  and  _157
REMARK   67  A    between atoms: _160  and  _162
REMARK   68  A    between atoms: _162  and  _163
REMARK   69  A    between atoms: _162  and  _165
REMARK   70  A    between atoms: _165  and  _166
REMARK   71  A    between atoms: _166  and  _167
REMARK   72  A    between atoms: _170  and  _172
REMARK   73  A    between atoms: _172  and  _173
REMARK   74  A    between atoms: _175  and  _177
REMARK   75  A    between atoms: _177  and  _178
REMARK   76  A    between atoms: _177  and  _180
REMARK   77  A    between atoms: _183  and  _185
REMARK   78  A    between atoms: _185  and  _186
REMARK   79  A    between atoms: _185  and  _188
REMARK   80  A    between atoms: _188  and  _189
REMARK   81  A    between atoms: _194  and  _195
REMARK   82  A    between atoms: _197  and  _199
REMARK   83  A    between atoms: _199  and  _200
REMARK   84  A    between atoms: _199  and  _202
REMARK   85  A    between atoms: _202  and  _203
REMARK   86  A    between atoms: _205  and  _207
REMARK   87  A    between atoms: _207  and  _208
REMARK   88  A    between atoms: _207  and  _210
REMARK   89  A    between atoms: _210  and  _211
REMARK   90  A    between atoms: _211  and  _212
REMARK   91  A    between atoms: _214  and  _216
REMARK   92  A    between atoms: _216  and  _217
REMARK   93  A    between atoms: _216  and  _219
REMARK   94  A    between atoms: _219  and  _220
REMARK   95  A    between atoms: _223  and  _225
REMARK   96  A    between atoms: _225  and  _226
REMARK   97  A    between atoms: _225  and  _228
REMARK   98  A    between atoms: _228  and  _229
REMARK   99  A    between atoms: _229  and  _230
REMARK  100  A    between atoms: _233  and  _235
REMARK  101  A    between atoms: _235  and  _236
REMARK  102  A    between atoms: _239  and  _241
REMARK  103  A    between atoms: _241  and  _242
REMARK  104  A    between atoms: _241  and  _244
REMARK  105  A    between atoms: _244  and  _245
REMARK  106  A    between atoms: _250  and  _252
REMARK  107  A    between atoms: _252  and  _253
REMARK  108  A    between atoms: _252  and  _255
REMARK  109  A    between atoms: _255  and  _256
REMARK  110  A    between atoms: _258  and  _260
REMARK  111  A    between atoms: _260  and  _261
REMARK  112  A    between atoms: _260  and  _263
REMARK  113  A    between atoms: _266  and  _268
REMARK  114  A    between atoms: _268  and  _269
REMARK  115  A    between atoms: _271  and  _273
REMARK  116  A    between atoms: _273  and  _274
REMARK  117  A    between atoms: _273  and  _276
REMARK  118  A    between atoms: _276  and  _277
REMARK  119  A    between atoms: _280  and  _282
REMARK  120  A    between atoms: _282  and  _283
REMARK  121  A    between atoms: _282  and  _285
REMARK  122  A    between atoms: _285  and  _286
REMARK  123  A    between atoms: _292  and  _294
REMARK  124  A    between atoms: _294  and  _295
REMARK  125  A    between atoms: _294  and  _297
REMARK  126  A    between atoms: _297  and  _298
REMARK  127  A    between atoms: _300  and  _302
REMARK  128  A    between atoms: _302  and  _303
REMARK  129  A    between atoms: _302  and  _305
REMARK  130  A    between atoms: _305  and  _306
REMARK  131  A    between atoms: _306  and  _307
REMARK  132  A    between atoms: _307  and  _308
REMARK  133  A    between atoms: _308  and  _309
REMARK  134  A    between atoms: _313  and  _315
REMARK  135  A    between atoms: _315  and  _316
REMARK  136  A    between atoms: _315  and  _318
REMARK  137  A    between atoms: _318  and  _319
REMARK  138  A    between atoms: _322  and  _324
REMARK  139  A    between atoms: _324  and  _325
REMARK  140  A    between atoms: _324  and  _327
REMARK  141  A    between atoms: _330  and  _332
REMARK  142  A    between atoms: _332  and  _333
REMARK  143  A    between atoms: _335  and  _337
REMARK  144  A    between atoms: _337  and  _338
REMARK  145  A    between atoms: _340  and  _342
REMARK  146  A    between atoms: _342  and  _343
REMARK  147  A    between atoms: _342  and  _345
REMARK  148  A    between atoms: _345  and  _346
REMARK  149  A    between atoms: _352  and  _354
REMARK  150  A    between atoms: _354  and  _355
REMARK  151  A    between atoms: _354  and  _357
REMARK  152  A    between atoms: _357  and  _358
REMARK  153  A    between atoms: _361  and  _363
REMARK  154  A    between atoms: _363  and  _364
REMARK  155  A    between atoms: _363  and  _366
REMARK  156  A    between atoms: _366  and  _367
REMARK  157  A    between atoms: _367  and  _368
REMARK  158  A    between atoms: _368  and  _369
REMARK  159  A    between atoms: _378  and  _380
REMARK  160  A    between atoms: _380  and  _381
REMARK  161  A    between atoms: _384  and  _386
REMARK  162  A    between atoms: _386  and  _387
REMARK  163  A    between atoms: _386  and  _389
REMARK  164  A    between atoms: _389  and  _390
REMARK  165  A    between atoms: _390  and  _391
REMARK  166  A    between atoms: _391  and  _392
REMARK  167  A    between atoms: _401  and  _403
REMARK  168  A    between atoms: _403  and  _404
REMARK  169  A    between atoms: _403  and  _406
REMARK  170  A    between atoms: _406  and  _407
REMARK  171  A    between atoms: _410  and  _412
REMARK  172  A    between atoms: _412  and  _413
REMARK  173  A    between atoms: _412  and  _415
REMARK  174  A    between atoms: _415  and  _416
REMARK  175  A    between atoms: _421  and  _423
REMARK  176  A    between atoms: _423  and  _424
REMARK  177  A    between atoms: _426  and  _428
REMARK  178  A    between atoms: _428  and  _429
REMARK  179  A    between atoms: _428  and  _431
REMARK  180  A    between atoms: _431  and  _432
REMARK  181  A    between atoms: _434  and  _436
REMARK  182  A    between atoms: _436  and  _437
REMARK  183  A    between atoms: _436  and  _439
REMARK  184  A    between atoms: _439  and  _440
REMARK  185  A    between atoms: _440  and  _441
REMARK  186  A    between atoms: _441  and  _442
REMARK  187  A    between atoms: _451  and  _453
REMARK  188  A    between atoms: _453  and  _454
REMARK  189  A    between atoms: _453  and  _456
REMARK  190  A    between atoms: _456  and  _457
REMARK  191  A    between atoms: _457  and  _458
REMARK  192  A    between atoms: _460  and  _462
REMARK  193  A    between atoms: _462  and  _463
REMARK  194  A    between atoms: _462  and  _465
REMARK  195  A    between atoms: _465  and  _466
REMARK  196  A    between atoms: _469  and  _471
REMARK  197  A    between atoms: _471  and  _472
REMARK  198  A    between atoms: _471  and  _474
REMARK  199  A    between atoms: _474  and  _475
REMARK  200  A    between atoms: _480  and  _482
REMARK  201  A    between atoms: _482  and  _483
REMARK  202  A    between atoms: _485  and  _487
REMARK  203  A    between atoms: _487  and  _488
REMARK  204  A    between atoms: _487  and  _490
REMARK  205  A    between atoms: _490  and  _491
REMARK  206  A    between atoms: _493  and  _495
REMARK  207  A    between atoms: _495  and  _496
REMARK  208  A    between atoms: _495  and  _498
REMARK  209  A    between atoms: _498  and  _499
REMARK  210  A    between atoms: _499  and  _500
REMARK  211  A    between atoms: _502  and  _504
REMARK  212  A    between atoms: _504  and  _505
REMARK  213  A    between atoms: _504  and  _507
REMARK  214  A    between atoms: _507  and  _508
REMARK  215  A    between atoms: _508  and  _509
REMARK  216  A    between atoms: _509  and  _510
REMARK  217  A    between atoms: _520  and  _521
REMARK  218  A    between atoms: _526  and  _528
REMARK  219  A    between atoms: _528  and  _529
REMARK  220  A    between atoms: _528  and  _531
REMARK  221  A    between atoms: _531  and  _532
REMARK  222  A    between atoms: _537  and  _538
REMARK  223  A    between atoms: _540  and  _542
REMARK  224  A    between atoms: _542  and  _543
REMARK  225  A    between atoms: _542  and  _545
REMARK  226  A    between atoms: _545  and  _546
REMARK  227  A    between atoms: _549  and  _551
REMARK  228  A    between atoms: _551  and  _552
REMARK  229  A    between atoms: _551  and  _554
REMARK  230  A    between atoms: _554  and  _555
REMARK  231  A    between atoms: _561  and  _563
REMARK  232  A    between atoms: _563  and  _564
REMARK  233  A    between atoms: _563  and  _566
REMARK  234  A    between atoms: _566  and  _567
REMARK  235  A    between atoms: _570  and  _572
REMARK  236  A    between atoms: _572  and  _573
REMARK  237  A    between atoms: _576  and  _578
REMARK  238  A    between atoms: _578  and  _579
REMARK  239  A    between atoms: _578  and  _581
REMARK  240  A    between atoms: _581  and  _582
REMARK                            x       y       z     vdW  Elec       q    Type
REMARK                         _______ _______ _______ _____ _____    ______ ____
ROOT
ATOM      1  C   HIS A   2       7.370   7.900  32.650  0.00  0.00    +0.241 C 
ATOM      2  N   ALA A   3       6.130   8.195  33.038  0.00  0.00    -0.297 N 
ATOM      3  H   ALA A   3       5.995   8.882  33.807  0.00  0.00    +0.150 HD
ATOM      4  O   HIS A   2       7.635   7.103  31.742  0.00  0.00    -0.273 OA
ENDROOT
BRANCH   2   5
ATOM      5  CA  ALA A   3       4.944   7.582  32.417  0.00  0.00    +0.149 C 
ATOM      6  CB  ALA A   3       3.658   8.238  32.949  0.00  0.00    +0.031 C 
BRANCH   5   7
ATOM      7  C   ALA A   3       4.951   7.637  30.893  0.00  0.00    +0.241 C 
ATOM      8  N   SER A   4       5.427   8.734  30.318  0.00  0.00    -0.295 N 
ATOM      9  H   SER A   4       5.813   9.495  30.913  0.00  0.00    +0.150 HD
ATOM     10  O   ALA A   3       4.539   6.688  30.248  0.00  0.00    -0.273 OA
BRANCH   8  11
ATOM     11  CA  SER A   4       5.419   8.894  28.863  0.00  0.00    +0.178 C 
BRANCH  11  12
ATOM     12  C   SER A   4       6.355   7.915  28.157  0.00  0.00    +0.243 C 
ATOM     13  N   ILE A   5       7.443   7.548  28.831  0.00  0.00    -0.298 N 
ATOM     14  H   ILE A   5       7.615   7.968  29.767  0.00  0.00    +0.150 HD
ATOM     15  O   SER A   4       6.110   7.530  27.014  0.00  0.00    -0.273 OA
BRANCH  13  16
ATOM     16  CA  ILE A   5       8.405   6.581  28.311  0.00  0.00    +0.137 C 
BRANCH  16  17
ATOM     17  C   ILE A   5       7.777   5.184  28.325  0.00  0.00    +0.227 C 
ATOM     18  O   ILE A   5       7.809   4.465  27.331  0.00  0.00    -0.286 OA
ENDBRANCH  16  17
BRANCH  16  19
ATOM     19  CB  ILE A   5       9.727   6.644  29.130  0.00  0.00    +0.026 C 
ATOM     20  CG2 ILE A   5      10.641   5.451  28.815  0.00  0.00    +0.002 C 
BRANCH  19  21
ATOM     21  CG1 ILE A   5      10.423   7.985  28.868  0.00  0.00    +0.002 C 
ATOM     22  CD1 ILE A   5      11.557   8.315  29.823  0.00  0.00    +0.000 C 
ENDBRANCH  19  21
ENDBRANCH  16  19
ENDBRANCH  13  16
ENDBRANCH  11  12
BRANCH  11  23
ATOM     23  CB  SER A   4       5.746  10.338  28.458  0.00  0.00    +0.166 C 
BRANCH  23  24
ATOM     24  OG  SER A   4       7.055  10.704  28.867  0.00  0.00    -0.380 OA
ATOM     25  H   SER A   4       7.125  10.629  29.852  0.00  0.00    +0.211 HD
ENDBRANCH  23  24
ENDBRANCH  11  23
ENDBRANCH   8  11
ENDBRANCH   5   7
ENDBRANCH   2   5
BRANCH   1  26
ATOM     26  CA  HIS A   2       8.488   8.636  33.388  0.00  0.00    +0.155 C 
BRANCH  26  29
ATOM     27  C   SER A   1       9.676   6.596  34.046  0.00  0.00    +0.241 C 
ATOM     28  O   SER A   1       8.651   6.059  34.475  0.00  0.00    -0.274 OA
ATOM     29  N   HIS A   2       9.698   7.808  33.505  0.00  0.00    -0.297 N 
ATOM     30  H   HIS A   2      10.601   8.185  33.152  0.00  0.00    +0.150 HD
BRANCH  27  31
ATOM     31  CA  SER A   1      11.007   5.844  34.052  0.00  0.00    +0.174 C 
BRANCH  31  32
ATOM     32  N   SER A   1      11.085   4.873  35.146  0.00  0.00    -0.236 NA
ATOM     33  H   SER A   1      11.216   3.867  34.917  0.00  0.00    +0.142 HD
ENDBRANCH  31  32
BRANCH  31  34
ATOM     34  CB  SER A   1      11.148   5.152  32.696  0.00  0.00    +0.163 C 
BRANCH  34  35
ATOM     35  OG  SER A   1      12.449   4.623  32.497  0.00  0.00    -0.380 OA
ATOM     36  H   SER A   1      12.645   3.958  33.204  0.00  0.00    +0.211 HD
ENDBRANCH  34  35
ENDBRANCH  31  34
ENDBRANCH  27  31
ENDBRANCH  26  29
BRANCH  26  37
ATOM     37  CB  HIS A   2       8.784   9.945  32.645  0.00  0.00    +0.076 C 
BRANCH  37  38
ATOM     38  CG  HIS A   2       7.658  10.935  32.691  0.00  0.00    +0.082 A 
ATOM     39  CD2 HIS A   2       7.233  11.753  33.684  0.00  0.00    +0.115 A 
ATOM     40  NE2 HIS A   2       6.154  12.451  33.200  0.00  0.00    -0.221 NA
ATOM     41  CE1 HIS A   2       5.916  12.070  31.958  0.00  0.00    +0.199 A 
ATOM     42  ND1 HIS A   2       6.815  11.158  31.626  0.00  0.00    -0.227 NA
ENDBRANCH  37  38
ENDBRANCH  26  37
ENDBRANCH   1  26
TORSDOF 18
REMARK  Name = ../refined-set-2016/2w8j/2w8j_pocket.pdb
REMARK  240 active torsions:
REMARK  status: ('A' for Active; 'I' for Inactive)
REMARK    1  A    between atoms: _1  and  _3
REMARK    2  A    between atoms: _3  and  _4
REMARK    3  A    between atoms: _3  and  _6
REMARK    4  A    between atoms: _6  and  _7
REMARK    5  A    between atoms: _10  and  _12
REMARK    6  A    between atoms: _12  and  _13
REMARK    7  A    between atoms: _12  and  _15
REMARK    8  A    between atoms: _15  and  _16
REMARK    9  A    between atoms: _21  and  _22
REMARK   10  A    between atoms: _24  and  _26
REMARK   11  A    between atoms: _26  and  _27
REMARK   12  A    between atoms: _26  and  _29
REMARK   13  A    between atoms: _29  and  _30
REMARK   14  A    between atoms: _35  and  _36
REMARK   15  A    between atoms: _38  and  _40
REMARK   16  A    between atoms: _40  and  _41
REMARK   17  A    between atoms: _40  and  _43
REMARK   18  A    between atoms: _43  and  _44
REMARK   19  A    between atoms: _46  and  _48
REMARK   20  A    between atoms: _48  and  _49
REMARK   21  A    between atoms: _48  and  _51
REMARK   22  A    between atoms: _51  and  _52
REMARK   23  A    between atoms: _55  and  _57
REMARK   24  A    between atoms: _57  and  _58
REMARK   25  A    between atoms: _60  and  _62
REMARK   26  A    between atoms: _62  and  _63
REMARK   27  A    between atoms: _62  and  _65
REMARK   28  A    between atoms: _65  and  _66
REMARK   29  A    between atoms: _71  and  _72
REMARK   30  A    between atoms: _74  and  _76
REMARK   31  A    between atoms: _76  and  _77
REMARK   32  A    between atoms: _76  and  _79
REMARK   33  A    between atoms: _79  and  _80
REMARK   34  A    between atoms: _80  and  _81
REMARK   35  A    between atoms: _83  and  _85
REMARK   36  A    between atoms: _85  and  _86
REMARK   37  A    between atoms: _89  and  _91
REMARK   38  A    between atoms: _91  and  _92
REMARK   39  A    between atoms: _91  and  _94
REMARK   40  A    between atoms: _94  and  _95
REMARK   41  A    between atoms: _100  and  _102
REMARK   42  A    between atoms: _102  and  _103
REMARK   43  A    between atoms: _102  and  _105
REMARK   44  A    between atoms: _105  and  _106
REMARK   45  A    between atoms: _109  and  _111
REMARK   46  A    between atoms: _111  and  _112
REMARK   47  A    between atoms: _111  and  _114
REMARK   48  A    between atoms: _114  and  _115
REMARK   49  A    between atoms: _117  and  _119
REMARK   50  A    between atoms: _119  and  _120
REMARK   51  A    between atoms: _119  and  _122
REMARK   52  A    between atoms: _122  and  _123
REMARK   53  A    between atoms: _128  and  _130
REMARK   54  A    between atoms: _130  and  _131
REMARK   55  A    between atoms: _134  and  _136
REMARK   56  A    between atoms: _136  and  _137
REMARK   57  A    between atoms: _136  and  _139
REMARK   58  A    between atoms: _139  and  _140
REMARK   59  A    between atoms: _142  and  _144
REMARK   60  A    between atoms: _144  and  _145
REMARK   61  A    between atoms: _144  and  _147
REMARK   62  A    between atoms: _147  and  _148
REMARK   63  A    between atoms: _151  and  _153
REMARK   64  A    between atoms: _153  and  _154
REMARK   65  A    between atoms: _153  and  _156
REMARK   66  A    between atoms: _156  and  _157
REMARK   67  A    between atoms: _160  and  _162
REMARK   68  A    between atoms: _162  and  _163
REMARK   69  A    between atoms: _162  and  _165
REMARK   70  A    between atoms: _165  and  _166
REMARK   71  A    between atoms: _166  and  _167
REMARK   72  A    between atoms: _170  and  _172
REMARK   73  A    between atoms: _172  and  _173
REMARK   74  A    between atoms: _175  and  _177
REMARK   75  A    between atoms: _177  and  _178
REMARK   76  A    between atoms: _177  and  _180
REMARK   77  A    between atoms: _183  and  _185
REMARK   78  A    between atoms: _185  and  _186
REMARK   79  A    between atoms: _185  and  _188
REMARK   80  A    between atoms: _188  and  _189
REMARK   81  A    between atoms: _194  and  _195
REMARK   82  A    between atoms: _197  and  _199
REMARK   83  A    between atoms: _199  and  _200
REMARK   84  A    between atoms: _199  and  _202
REMARK   85  A    between atoms: _202  and  _203
REMARK   86  A    between atoms: _205  and  _207
REMARK   87  A    between atoms: _207  and  _208
REMARK   88  A    between atoms: _207  and  _210
REMARK   89  A    between atoms: _210  and  _211
REMARK   90  A    between atoms: _211  and  _212
REMARK   91  A    between atoms: _214  and  _216
REMARK   92  A    between atoms: _216  and  _217
REMARK   93  A    between atoms: _216  and  _219
REMARK   94  A    between atoms: _219  and  _220
REMARK   95  A    between atoms: _223  and  _225
REMARK   96  A    between atoms: _225  and  _226
REMARK   97  A    between atoms: _225  and  _228
REMARK   98  A    between atoms: _228  and  _229
REMARK   99  A    between atoms: _229  and  _230
REMARK  100  A    between atoms: _233  and  _235
REMARK  101  A    between atoms: _235  and  _236
REMARK  102  A    between atoms: _239  and  _241
REMARK  103  A    between atoms: _241  and  _242
REMARK  104  A    between atoms: _241  and  _244
REMARK  105  A    between atoms: _244  and  _245
REMARK  106  A    between atoms: _250  and  _252
REMARK  107  A    between atoms: _252  and  _253
REMARK  108  A    between atoms: _252  and  _255
REMARK  109  A    between atoms: _255  and  _256
REMARK  110  A    between atoms: _258  and  _260
REMARK  111  A    between atoms: _260  and  _261
REMARK  112  A    between atoms: _260  and  _263
REMARK  113  A    between atoms: _266  and  _268
REMARK  114  A    between atoms: _268  and  _269
REMARK  115  A    between atoms: _271  and  _273
REMARK  116  A    between atoms: _273  and  _274
REMARK  117  A    between atoms: _273  and  _276
REMARK  118  A    between atoms: _276  and  _277
REMARK  119  A    between atoms: _280  and  _282
REMARK  120  A    between atoms: _282  and  _283
REMARK  121  A    between atoms: _282  and  _285
REMARK  122  A    between atoms: _285  and  _286
REMARK  123  A    between atoms: _292  and  _294
REMARK  124  A    between atoms: _294  and  _295
REMARK  125  A    between atoms: _294  and  _297
REMARK  126  A    between atoms: _297  and  _298
REMARK  127  A    between atoms: _300  and  _302
REMARK  128  A    between atoms: _302  and  _303
REMARK  129  A    between atoms: _302  and  _305
REMARK  130  A    between atoms: _305  and  _306
REMARK  131  A    between atoms: _306  and  _307
REMARK  132  A    between atoms: _307  and  _308
REMARK  133  A    between atoms: _308  and  _309
REMARK  134  A    between atoms: _313  and  _315
REMARK  135  A    between atoms: _315  and  _316
REMARK  136  A    between atoms: _315  and  _318
REMARK  137  A    between atoms: _318  and  _319
REMARK  138  A    between atoms: _322  and  _324
REMARK  139  A    between atoms: _324  and  _325
REMARK  140  A    between atoms: _324  and  _327
REMARK  141  A    between atoms: _330  and  _332
REMARK  142  A    between atoms: _332  and  _333
REMARK  143  A    between atoms: _335  and  _337
REMARK  144  A    between atoms: _337  and  _338
REMARK  145  A    between atoms: _340  and  _342
REMARK  146  A    between atoms: _342  and  _343
REMARK  147  A    between atoms: _342  and  _345
REMARK  148  A    between atoms: _345  and  _346
REMARK  149  A    between atoms: _352  and  _354
REMARK  150  A    between atoms: _354  and  _355
REMARK  151  A    between atoms: _354  and  _357
REMARK  152  A    between atoms: _357  and  _358
REMARK  153  A    between atoms: _361  and  _363
REMARK  154  A    between atoms: _363  and  _364
REMARK  155  A    between atoms: _363  and  _366
REMARK  156  A    between atoms: _366  and  _367
REMARK  157  A    between atoms: _367  and  _368
REMARK  158  A    between atoms: _368  and  _369
REMARK  159  A    between atoms: _378  and  _380
REMARK  160  A    between atoms: _380  and  _381
REMARK  161  A    between atoms: _384  and  _386
REMARK  162  A    between atoms: _386  and  _387
REMARK  163  A    between atoms: _386  and  _389
REMARK  164  A    between atoms: _389  and  _390
REMARK  165  A    between atoms: _390  and  _391
REMARK  166  A    between atoms: _391  and  _392
REMARK  167  A    between atoms: _401  and  _403
REMARK  168  A    between atoms: _403  and  _404
REMARK  169  A    between atoms: _403  and  _406
REMARK  170  A    between atoms: _406  and  _407
REMARK  171  A    between atoms: _410  and  _412
REMARK  172  A    between atoms: _412  and  _413
REMARK  173  A    between atoms: _412  and  _415
REMARK  174  A    between atoms: _415  and  _416
REMARK  175  A    between atoms: _421  and  _423
REMARK  176  A    between atoms: _423  and  _424
REMARK  177  A    between atoms: _426  and  _428
REMARK  178  A    between atoms: _428  and  _429
REMARK  179  A    between atoms: _428  and  _431
REMARK  180  A    between atoms: _431  and  _432
REMARK  181  A    between atoms: _434  and  _436
REMARK  182  A    between atoms: _436  and  _437
REMARK  183  A    between atoms: _436  and  _439
REMARK  184  A    between atoms: _439  and  _440
REMARK  185  A    between atoms: _440  and  _441
REMARK  186  A    between atoms: _441  and  _442
REMARK  187  A    between atoms: _451  and  _453
REMARK  188  A    between atoms: _453  and  _454
REMARK  189  A    between atoms: _453  and  _456
REMARK  190  A    between atoms: _456  and  _457
REMARK  191  A    between atoms: _457  and  _458
REMARK  192  A    between atoms: _460  and  _462
REMARK  193  A    between atoms: _462  and  _463
REMARK  194  A    between atoms: _462  and  _465
REMARK  195  A    between atoms: _465  and  _466
REMARK  196  A    between atoms: _469  and  _471
REMARK  197  A    between atoms: _471  and  _472
REMARK  198  A    between atoms: _471  and  _474
REMARK  199  A    between atoms: _474  and  _475
REMARK  200  A    between atoms: _480  and  _482
REMARK  201  A    between atoms: _482  and  _483
REMARK  202  A    between atoms: _485  and  _487
REMARK  203  A    between atoms: _487  and  _488
REMARK  204  A    between atoms: _487  and  _490
REMARK  205  A    between atoms: _490  and  _491
REMARK  206  A    between atoms: _493  and  _495
REMARK  207  A    between atoms: _495  and  _496
REMARK  208  A    between atoms: _495  and  _498
REMARK  209  A    between atoms: _498  and  _499
REMARK  210  A    between atoms: _499  and  _500
REMARK  211  A    between atoms: _502  and  _504
REMARK  212  A    between atoms: _504  and  _505
REMARK  213  A    between atoms: _504  and  _507
REMARK  214  A    between atoms: _507  and  _508
REMARK  215  A    between atoms: _508  and  _509
REMARK  216  A    between atoms: _509  and  _510
REMARK  217  A    between atoms: _520  and  _521
REMARK  218  A    between atoms: _526  and  _528
REMARK  219  A    between atoms: _528  and  _529
REMARK  220  A    between atoms: _528  and  _531
REMARK  221  A    between atoms: _531  and  _532
REMARK  222  A    between atoms: _537  and  _538
REMARK  223  A    between atoms: _540  and  _542
REMARK  224  A    between atoms: _542  and  _543
REMARK  225  A    between atoms: _542  and  _545
REMARK  226  A    between atoms: _545  and  _546
REMARK  227  A    between atoms: _549  and  _551
REMARK  228  A    between atoms: _551  and  _552
REMARK  229  A    between atoms: _551  and  _554
REMARK  230  A    between atoms: _554  and  _555
REMARK  231  A    between atoms: _561  and  _563
REMARK  232  A    between atoms: _563  and  _564
REMARK  233  A    between atoms: _563  and  _566
REMARK  234  A    between atoms: _566  and  _567
REMARK  235  A    between atoms: _570  and  _572
REMARK  236  A    between atoms: _572  and  _573
REMARK  237  A    between atoms: _576  and  _578
REMARK  238  A    between atoms: _578  and  _579
REMARK  239  A    between atoms: _578  and  _581
REMARK  240  A    between atoms: _581  and  _582
REMARK                            x       y       z     vdW  Elec       q    Type
REMARK                         _______ _______ _______ _____ _____    ______ ____
ROOT
ATOM      1  C   VAL A   4      16.002  13.096  36.614  0.00  0.00    +0.241 C 
ATOM      2  N   TYR A   5      15.823  12.255  37.623  0.00  0.00    -0.297 N 
ATOM      3  H   TYR A   5      16.604  12.063  38.282  0.00  0.00    +0.150 HD
ATOM      4  O   VAL A   4      15.146  13.311  35.751  0.00  0.00    -0.273 OA
ENDROOT
BRANCH   2   5
ATOM      5  CA  TYR A   5      14.530  11.596  37.813  0.00  0.00    +0.153 C 
BRANCH   5   6
ATOM      6  C   TYR A   5      13.646  12.447  38.713  0.00  0.00    +0.241 C 
ATOM      7  O   TYR A   5      14.074  12.918  39.773  0.00  0.00    -0.273 OA
ATOM      8  N   SER A   6      12.416  12.657  38.265  0.00  0.00    -0.295 N 
ATOM      9  H   SER A   6      12.043  12.060  37.500  0.00  0.00    +0.150 HD
BRANCH   8  10
ATOM     10  CA  SER A   6      11.578  13.706  38.823  0.00  0.00    +0.178 C 
BRANCH  10  11
ATOM     11  C   SER A   6      10.940  13.378  40.172  0.00  0.00    +0.243 C 
ATOM     12  O   SER A   6      10.495  14.296  40.844  0.00  0.00    -0.273 OA
ATOM     13  N   MET A   7      10.884  12.107  40.580  0.00  0.00    -0.298 N 
ATOM     14  H   MET A   7      11.285  11.349  39.992  0.00  0.00    +0.150 HD
BRANCH  13  15
ATOM     15  CA  MET A   7      10.251  11.792  41.866  0.00  0.00    +0.138 C 
BRANCH  15  16
ATOM     16  C   MET A   7      11.068  12.334  43.030  0.00  0.00    +0.227 C 
ATOM     17  O   MET A   7      10.548  13.090  43.834  0.00  0.00    -0.286 OA
ENDBRANCH  15  16
BRANCH  15  18
ATOM     18  CB  MET A   7      10.003  10.296  42.074  0.00  0.00    +0.039 C 
BRANCH  18  19
ATOM     19  CG  MET A   7       9.436  10.009  43.472  0.00  0.00    +0.060 C 
BRANCH  19  20
ATOM     20  SD  MET A   7       8.475   8.504  43.632  0.00  0.00    -0.139 S 
ATOM     21  CE  MET A   7       9.780   7.280  43.717  0.00  0.00    +0.069 C 
ENDBRANCH  19  20
ENDBRANCH  18  19
ENDBRANCH  15  18
ENDBRANCH  13  15
ENDBRANCH  10  11
BRANCH  10  22
ATOM     22  CB  SER A   6      10.480  14.091  37.835  0.00  0.00    +0.166 C 
BRANCH  22  23
ATOM     23  OG  SER A   6       9.764  12.943  37.427  0.00  0.00    -0.380 OA
ATOM     24  H   SER A   6      10.384  12.307  36.991  0.00  0.00    +0.211 HD
ENDBRANCH  22  23
ENDBRANCH  10  22
ENDBRANCH   8  10
ENDBRANCH   5   6
BRANCH   5  25
ATOM     25  CB  TYR A   5      14.716  10.182  38.334  0.00  0.00    +0.055 C 
BRANCH  25  26
ATOM     26  CG  TYR A   5      15.265   9.262  37.259  0.00  0.00    -0.020 A 
ATOM     27  CD2 TYR A   5      16.632   9.190  37.011  0.00  0.00    -0.001 A 
ATOM     28  CE2 TYR A   5      17.149   8.356  36.009  0.00  0.00    +0.036 A 
ATOM     29  CZ  TYR A   5      16.290   7.579  35.229  0.00  0.00    +0.134 A 
ATOM     30  CE1 TYR A   5      14.915   7.641  35.456  0.00  0.00    +0.036 A 
ATOM     31  CD1 TYR A   5      14.413   8.489  36.463  0.00  0.00    -0.001 A 
BRANCH  29  32
ATOM     32  OH  TYR A   5      16.794   6.746  34.224  0.00  0.00    -0.506 OA
ATOM     33  HH  TYR A   5      17.410   6.082  34.625  0.00  0.00    +0.292 HD
ENDBRANCH  29  32
ENDBRANCH  25  26
ENDBRANCH   5  25
ENDBRANCH   2   5
BRANCH   1  34
ATOM     34  CA  VAL A   4      17.331  13.816  36.548  0.00  0.00    +0.149 C 
BRANCH  34  37
ATOM     35  C   GLY A   3      18.977  12.903  34.974  0.00  0.00    +0.243 C 
ATOM     36  O   GLY A   3      19.739  12.487  35.860  0.00  0.00    -0.273 OA
ATOM     37  N   VAL A   4      17.866  13.594  35.211  0.00  0.00    -0.297 N 
ATOM     38  H   VAL A   4      17.353  13.996  34.401  0.00  0.00    +0.150 HD
BRANCH  35  39
ATOM     39  CA  GLY A   3      19.286  12.669  33.508  0.00  0.00    +0.176 C 
BRANCH  39  42
ATOM     40  C   GLU A   2      17.887  10.720  33.029  0.00  0.00    +0.241 C 
ATOM     41  O   GLU A   2      18.549   9.998  33.771  0.00  0.00    -0.273 OA
ATOM     42  N   GLY A   3      18.172  12.000  32.820  0.00  0.00    -0.295 N 
ATOM     43  H   GLY A   3      17.591  12.545  32.151  0.00  0.00    +0.150 HD
BRANCH  40  44
ATOM     44  CA  GLU A   2      16.690  10.142  32.273  0.00  0.00    +0.149 C 
BRANCH  44  46
ATOM     45  C   LEU A   1      17.072   8.311  30.699  0.00  0.00    +0.238 C 
ATOM     46  N   GLU A   2      16.973   8.742  31.953  0.00  0.00    -0.297 N 
ATOM     47  H   GLU A   2      17.101   8.063  32.731  0.00  0.00    +0.150 HD
ATOM     48  O   LEU A   1      16.752   8.998  29.730  0.00  0.00    -0.274 OA
BRANCH  45  49
ATOM     49  CA  LEU A   1      17.602   6.896  30.502  0.00  0.00    +0.145 C 
BRANCH  49  50
ATOM     50  N   LEU A   1      17.187   6.407  29.188  0.00  0.00    -0.238 NA
ATOM     51  H   LEU A   1      17.359   7.019  28.365  0.00  0.00    +0.142 HD
ENDBRANCH  49  50
BRANCH  49  52
ATOM     52  CB  LEU A   1      19.137   6.912  30.600  0.00  0.00    +0.026 C 
BRANCH  52  53
ATOM     53  CG  LEU A   1      19.846   5.611  30.225  0.00  0.00    +0.002 C 
ATOM     54  CD2 LEU A   1      19.514   4.513  31.245  0.00  0.00    +0.000 C 
ATOM     55  CD1 LEU A   1      21.356   5.822  30.093  0.00  0.00    +0.000 C 
ENDBRANCH  52  53
ENDBRANCH  49  52
ENDBRANCH  45  49
ENDBRANCH  44  46
BRANCH  44  56
ATOM     56  CB  GLU A   2      15.433  10.268  33.135  0.00  0.00    +0.041 C 
BRANCH  56  57
ATOM     57  CG  GLU A   2      14.173   9.742  32.448  0.00  0.00    +0.116 C 
BRANCH  57  58
ATOM     58  CD  GLU A   2      12.946   9.748  33.337  0.00  0.00    +0.365 C 
ATOM     59  OE2 GLU A   2      12.639  10.783  33.954  0.00  0.00    -0.246 OA
ATOM     60  OE1 GLU A   2      12.279   8.700  33.417  0.00  0.00    -0.246 OA
ENDBRANCH  57  58
ENDBRANCH  56  57
ENDBRANCH  44  56
ENDBRANCH  40  44
ENDBRANCH  39  42
ENDBRANCH  35  39
ENDBRANCH  34  37
BRANCH  34  61
ATOM     61  CB  VAL A   4      17.053  15.300  36.809  0.00  0.00    +0.027 C 
ATOM     62  CG2 VAL A   4      16.313  15.475  38.137  0.00  0.00    +0.002 C 
ATOM     63  CG1 VAL A   4      18.332  16.108  36.803  0.00  0.00    +0.002 C 
ENDBRANCH  34  61
ENDBRANCH   1  34
TORSDOF 28
REMARK  Name = ../refined-set-2016/2w8j/2w8j_pocket.pdb
REMARK  240 active torsions:
REMARK  status: ('A' for Active; 'I' for Inactive)
REMARK    1  A    between atoms: _1  and  _3
REMARK    2  A    between atoms: _3  and  _4
REMARK    3  A    between atoms: _3  and  _6
REMARK    4  A    between atoms: _6  and  _7
REMARK    5  A    between atoms: _10  and  _12
REMARK    6  A    between atoms: _12  and  _13
REMARK    7  A    between atoms: _12  and  _15
REMARK    8  A    between atoms: _15  and  _16
REMARK    9  A    between atoms: _21  and  _22
REMARK   10  A    between atoms: _24  and  _26
REMARK   11  A    between atoms: _26  and  _27
REMARK   12  A    between atoms: _26  and  _29
REMARK   13  A    between atoms: _29  and  _30
REMARK   14  A    between atoms: _35  and  _36
REMARK   15  A    between atoms: _38  and  _40
REMARK   16  A    between atoms: _40  and  _41
REMARK   17  A    between atoms: _40  and  _43
REMARK   18  A    between atoms: _43  and  _44
REMARK   19  A    between atoms: _46  and  _48
REMARK   20  A    between atoms: _48  and  _49
REMARK   21  A    between atoms: _48  and  _51
REMARK   22  A    between atoms: _51  and  _52
REMARK   23  A    between atoms: _55  and  _57
REMARK   24  A    between atoms: _57  and  _58
REMARK   25  A    between atoms: _60  and  _62
REMARK   26  A    between atoms: _62  and  _63
REMARK   27  A    between atoms: _62  and  _65
REMARK   28  A    between atoms: _65  and  _66
REMARK   29  A    between atoms: _71  and  _72
REMARK   30  A    between atoms: _74  and  _76
REMARK   31  A    between atoms: _76  and  _77
REMARK   32  A    between atoms: _76  and  _79
REMARK   33  A    between atoms: _79  and  _80
REMARK   34  A    between atoms: _80  and  _81
REMARK   35  A    between atoms: _83  and  _85
REMARK   36  A    between atoms: _85  and  _86
REMARK   37  A    between atoms: _89  and  _91
REMARK   38  A    between atoms: _91  and  _92
REMARK   39  A    between atoms: _91  and  _94
REMARK   40  A    between atoms: _94  and  _95
REMARK   41  A    between atoms: _100  and  _102
REMARK   42  A    between atoms: _102  and  _103
REMARK   43  A    between atoms: _102  and  _105
REMARK   44  A    between atoms: _105  and  _106
REMARK   45  A    between atoms: _109  and  _111
REMARK   46  A    between atoms: _111  and  _112
REMARK   47  A    between atoms: _111  and  _114
REMARK   48  A    between atoms: _114  and  _115
REMARK   49  A    between atoms: _117  and  _119
REMARK   50  A    between atoms: _119  and  _120
REMARK   51  A    between atoms: _119  and  _122
REMARK   52  A    between atoms: _122  and  _123
REMARK   53  A    between atoms: _128  and  _130
REMARK   54  A    between atoms: _130  and  _131
REMARK   55  A    between atoms: _134  and  _136
REMARK   56  A    between atoms: _136  and  _137
REMARK   57  A    between atoms: _136  and  _139
REMARK   58  A    between atoms: _139  and  _140
REMARK   59  A    between atoms: _142  and  _144
REMARK   60  A    between atoms: _144  and  _145
REMARK   61  A    between atoms: _144  and  _147
REMARK   62  A    between atoms: _147  and  _148
REMARK   63  A    between atoms: _151  and  _153
REMARK   64  A    between atoms: _153  and  _154
REMARK   65  A    between atoms: _153  and  _156
REMARK   66  A    between atoms: _156  and  _157
REMARK   67  A    between atoms: _160  and  _162
REMARK   68  A    between atoms: _162  and  _163
REMARK   69  A    between atoms: _162  and  _165
REMARK   70  A    between atoms: _165  and  _166
REMARK   71  A    between atoms: _166  and  _167
REMARK   72  A    between atoms: _170  and  _172
REMARK   73  A    between atoms: _172  and  _173
REMARK   74  A    between atoms: _175  and  _177
REMARK   75  A    between atoms: _177  and  _178
REMARK   76  A    between atoms: _177  and  _180
REMARK   77  A    between atoms: _183  and  _185
REMARK   78  A    between atoms: _185  and  _186
REMARK   79  A    between atoms: _185  and  _188
REMARK   80  A    between atoms: _188  and  _189
REMARK   81  A    between atoms: _194  and  _195
REMARK   82  A    between atoms: _197  and  _199
REMARK   83  A    between atoms: _199  and  _200
REMARK   84  A    between atoms: _199  and  _202
REMARK   85  A    between atoms: _202  and  _203
REMARK   86  A    between atoms: _205  and  _207
REMARK   87  A    between atoms: _207  and  _208
REMARK   88  A    between atoms: _207  and  _210
REMARK   89  A    between atoms: _210  and  _211
REMARK   90  A    between atoms: _211  and  _212
REMARK   91  A    between atoms: _214  and  _216
REMARK   92  A    between atoms: _216  and  _217
REMARK   93  A    between atoms: _216  and  _219
REMARK   94  A    between atoms: _219  and  _220
REMARK   95  A    between atoms: _223  and  _225
REMARK   96  A    between atoms: _225  and  _226
REMARK   97  A    between atoms: _225  and  _228
REMARK   98  A    between atoms: _228  and  _229
REMARK   99  A    between atoms: _229  and  _230
REMARK  100  A    between atoms: _233  and  _235
REMARK  101  A    between atoms: _235  and  _236
REMARK  102  A    between atoms: _239  and  _241
REMARK  103  A    between atoms: _241  and  _242
REMARK  104  A    between atoms: _241  and  _244
REMARK  105  A    between atoms: _244  and  _245
REMARK  106  A    between atoms: _250  and  _252
REMARK  107  A    between atoms: _252  and  _253
REMARK  108  A    between atoms: _252  and  _255
REMARK  109  A    between atoms: _255  and  _256
REMARK  110  A    between atoms: _258  and  _260
REMARK  111  A    between atoms: _260  and  _261
REMARK  112  A    between atoms: _260  and  _263
REMARK  113  A    between atoms: _266  and  _268
REMARK  114  A    between atoms: _268  and  _269
REMARK  115  A    between atoms: _271  and  _273
REMARK  116  A    between atoms: _273  and  _274
REMARK  117  A    between atoms: _273  and  _276
REMARK  118  A    between atoms: _276  and  _277
REMARK  119  A    between atoms: _280  and  _282
REMARK  120  A    between atoms: _282  and  _283
REMARK  121  A    between atoms: _282  and  _285
REMARK  122  A    between atoms: _285  and  _286
REMARK  123  A    between atoms: _292  and  _294
REMARK  124  A    between atoms: _294  and  _295
REMARK  125  A    between atoms: _294  and  _297
REMARK  126  A    between atoms: _297  and  _298
REMARK  127  A    between atoms: _300  and  _302
REMARK  128  A    between atoms: _302  and  _303
REMARK  129  A    between atoms: _302  and  _305
REMARK  130  A    between atoms: _305  and  _306
REMARK  131  A    between atoms: _306  and  _307
REMARK  132  A    between atoms: _307  and  _308
REMARK  133  A    between atoms: _308  and  _309
REMARK  134  A    between atoms: _313  and  _315
REMARK  135  A    between atoms: _315  and  _316
REMARK  136  A    between atoms: _315  and  _318
REMARK  137  A    between atoms: _318  and  _319
REMARK  138  A    between atoms: _322  and  _324
REMARK  139  A    between atoms: _324  and  _325
REMARK  140  A    between atoms: _324  and  _327
REMARK  141  A    between atoms: _330  and  _332
REMARK  142  A    between atoms: _332  and  _333
REMARK  143  A    between atoms: _335  and  _337
REMARK  144  A    between atoms: _337  and  _338
REMARK  145  A    between atoms: _340  and  _342
REMARK  146  A    between atoms: _342  and  _343
REMARK  147  A    between atoms: _342  and  _345
REMARK  148  A    between atoms: _345  and  _346
REMARK  149  A    between atoms: _352  and  _354
REMARK  150  A    between atoms: _354  and  _355
REMARK  151  A    between atoms: _354  and  _357
REMARK  152  A    between atoms: _357  and  _358
REMARK  153  A    between atoms: _361  and  _363
REMARK  154  A    between atoms: _363  and  _364
REMARK  155  A    between atoms: _363  and  _366
REMARK  156  A    between atoms: _366  and  _367
REMARK  157  A    between atoms: _367  and  _368
REMARK  158  A    between atoms: _368  and  _369
REMARK  159  A    between atoms: _378  and  _380
REMARK  160  A    between atoms: _380  and  _381
REMARK  161  A    between atoms: _384  and  _386
REMARK  162  A    between atoms: _386  and  _387
REMARK  163  A    between atoms: _386  and  _389
REMARK  164  A    between atoms: _389  and  _390
REMARK  165  A    between atoms: _390  and  _391
REMARK  166  A    between atoms: _391  and  _392
REMARK  167  A    between atoms: _401  and  _403
REMARK  168  A    between atoms: _403  and  _404
REMARK  169  A    between atoms: _403  and  _406
REMARK  170  A    between atoms: _406  and  _407
REMARK  171  A    between atoms: _410  and  _412
REMARK  172  A    between atoms: _412  and  _413
REMARK  173  A    between atoms: _412  and  _415
REMARK  174  A    between atoms: _415  and  _416
REMARK  175  A    between atoms: _421  and  _423
REMARK  176  A    between atoms: _423  and  _424
REMARK  177  A    between atoms: _426  and  _428
REMARK  178  A    between atoms: _428  and  _429
REMARK  179  A    between atoms: _428  and  _431
REMARK  180  A    between atoms: _431  and  _432
REMARK  181  A    between atoms: _434  and  _436
REMARK  182  A    between atoms: _436  and  _437
REMARK  183  A    between atoms: _436  and  _439
REMARK  184  A    between atoms: _439  and  _440
REMARK  185  A    between atoms: _440  and  _441
REMARK  186  A    between atoms: _441  and  _442
REMARK  187  A    between atoms: _451  and  _453
REMARK  188  A    between atoms: _453  and  _454
REMARK  189  A    between atoms: _453  and  _456
REMARK  190  A    between atoms: _456  and  _457
REMARK  191  A    between atoms: _457  and  _458
REMARK  192  A    between atoms: _460  and  _462
REMARK  193  A    between atoms: _462  and  _463
REMARK  194  A    between atoms: _462  and  _465
REMARK  195  A    between atoms: _465  and  _466
REMARK  196  A    between atoms: _469  and  _471
REMARK  197  A    between atoms: _471  and  _472
REMARK  198  A    between atoms: _471  and  _474
REMARK  199  A    between atoms: _474  and  _475
REMARK  200  A    between atoms: _480  and  _482
REMARK  201  A    between atoms: _482  and  _483
REMARK  202  A    between atoms: _485  and  _487
REMARK  203  A    between atoms: _487  and  _488
REMARK  204  A    between atoms: _487  and  _490
REMARK  205  A    between atoms: _490  and  _491
REMARK  206  A    between atoms: _493  and  _495
REMARK  207  A    between atoms: _495  and  _496
REMARK  208  A    between atoms: _495  and  _498
REMARK  209  A    between atoms: _498  and  _499
REMARK  210  A    between atoms: _499  and  _500
REMARK  211  A    between atoms: _502  and  _504
REMARK  212  A    between atoms: _504  and  _505
REMARK  213  A    between atoms: _504  and  _507
REMARK  214  A    between atoms: _507  and  _508
REMARK  215  A    between atoms: _508  and  _509
REMARK  216  A    between atoms: _509  and  _510
REMARK  217  A    between atoms: _520  and  _521
REMARK  218  A    between atoms: _526  and  _528
REMARK  219  A    between atoms: _528  and  _529
REMARK  220  A    between atoms: _528  and  _531
REMARK  221  A    between atoms: _531  and  _532
REMARK  222  A    between atoms: _537  and  _538
REMARK  223  A    between atoms: _540  and  _542
REMARK  224  A    between atoms: _542  and  _543
REMARK  225  A    between atoms: _542  and  _545
REMARK  226  A    between atoms: _545  and  _546
REMARK  227  A    between atoms: _549  and  _551
REMARK  228  A    between atoms: _551  and  _552
REMARK  229  A    between atoms: _551  and  _554
REMARK  230  A    between atoms: _554  and  _555
REMARK  231  A    between atoms: _561  and  _563
REMARK  232  A    between atoms: _563  and  _564
REMARK  233  A    between atoms: _563  and  _566
REMARK  234  A    between atoms: _566  and  _567
REMARK  235  A    between atoms: _570  and  _572
REMARK  236  A    between atoms: _572  and  _573
REMARK  237  A    between atoms: _576  and  _578
REMARK  238  A    between atoms: _578  and  _579
REMARK  239  A    between atoms: _578  and  _581
REMARK  240  A    between atoms: _581  and  _582
REMARK                            x       y       z     vdW  Elec       q    Type
REMARK                         _______ _______ _______ _____ _____    ______ ____
ROOT
ATOM      1  CA  ALA A   3      13.382  17.390  30.722  0.00  0.00    +0.149 C 
ATOM      2  CB  ALA A   3      12.095  16.620  30.947  0.00  0.00    +0.031 C 
ENDROOT
BRANCH   1   4
ATOM      3  C   GLU A   2      15.703  16.904  30.094  0.00  0.00    +0.241 C 
ATOM      4  N   ALA A   3      14.482  16.472  30.404  0.00  0.00    -0.297 N 
ATOM      5  H   ALA A   3      14.302  15.448  30.421  0.00  0.00    +0.150 HD
ATOM      6  O   GLU A   2      15.989  18.105  30.066  0.00  0.00    -0.273 OA
BRANCH   3   7
ATOM      7  CA  GLU A   2      16.760  15.822  29.791  0.00  0.00    +0.149 C 
BRANCH   7  10
ATOM      8  C   ASP A   1      16.007  13.505  29.507  0.00  0.00    +0.239 C 
ATOM      9  O   ASP A   1      16.317  13.187  30.664  0.00  0.00    -0.274 OA
ATOM     10  N   GLU A   2      16.196  14.725  29.007  0.00  0.00    -0.297 N 
ATOM     11  H   GLU A   2      15.931  14.904  28.017  0.00  0.00    +0.150 HD
BRANCH   8  12
ATOM     12  CA  ASP A   1      15.417  12.468  28.548  0.00  0.00    +0.156 C 
BRANCH  12  13
ATOM     13  N   ASP A   1      16.447  11.458  28.309  0.00  0.00    -0.238 NA
ATOM     14  H   ASP A   1      16.490  10.640  28.949  0.00  0.00    +0.142 HD
ENDBRANCH  12  13
BRANCH  12  15
ATOM     15  CB  ASP A   1      14.147  11.786  29.102  0.00  0.00    +0.140 C 
BRANCH  15  16
ATOM     16  CG  ASP A   1      13.021  12.750  29.431  0.00  0.00    +0.367 C 
ATOM     17  OD2 ASP A   1      13.284  13.887  29.864  0.00  0.00    -0.246 OA
ATOM     18  OD1 ASP A   1      11.836  12.337  29.302  0.00  0.00    -0.246 OA
ENDBRANCH  15  16
ENDBRANCH  12  15
ENDBRANCH   8  12
ENDBRANCH   7  10
BRANCH   7  19
ATOM     19  CB  GLU A   2      18.004  16.383  29.086  0.00  0.00    +0.041 C 
BRANCH  19  20
ATOM     20  CG  GLU A   2      19.147  15.364  28.891  0.00  0.00    +0.116 C 
BRANCH  20  21
ATOM     21  CD  GLU A   2      20.033  15.158  30.123  0.00  0.00    +0.365 C 
ATOM     22  OE2 GLU A   2      19.720  15.690  31.218  0.00  0.00    -0.246 OA
ATOM     23  OE1 GLU A   2      21.079  14.479  29.978  0.00  0.00    -0.246 OA
ENDBRANCH  20  21
ENDBRANCH  19  20
ENDBRANCH   7  19
ENDBRANCH   3   7
ENDBRANCH   1   4
BRANCH   1  24
ATOM     24  C   ALA A   3      13.690  18.252  31.953  0.00  0.00    +0.241 C 
ATOM     25  N   HIS A   4      14.348  17.659  32.954  0.00  0.00    -0.297 N 
ATOM     26  H   HIS A   4      14.728  16.701  32.812  0.00  0.00    +0.150 HD
ATOM     27  O   ALA A   3      13.340  19.434  31.985  0.00  0.00    -0.273 OA
BRANCH  25  28
ATOM     28  CA  HIS A   4      14.549  18.321  34.246  0.00  0.00    +0.155 C 
BRANCH  28  29
ATOM     29  C   HIS A   4      15.959  18.878  34.462  0.00  0.00    +0.241 C 
ATOM     30  O   HIS A   4      16.361  19.127  35.593  0.00  0.00    -0.273 OA
ATOM     31  N   SER A   5      16.689  19.121  33.372  0.00  0.00    -0.296 N 
ATOM     32  H   SER A   5      16.261  18.962  32.438  0.00  0.00    +0.150 HD
BRANCH  31  33
ATOM     33  CA  SER A   5      18.070  19.603  33.440  0.00  0.00    +0.166 C 
BRANCH  33  34
ATOM     34  C   SER A   5      18.420  20.714  32.438  0.00  0.00    +0.229 C 
ATOM     35  O   SER A   5      19.454  21.349  32.559  0.00  0.00    -0.286 OA
ENDBRANCH  33  34
BRANCH  33  36
ATOM     36  CB  SER A   5      19.007  18.433  33.173  0.00  0.00    +0.165 C 
BRANCH  36  37
ATOM     37  OG  SER A   5      18.688  17.887  31.903  0.00  0.00    -0.380 OA
ATOM     38  H   SER A   5      19.289  17.124  31.713  0.00  0.00    +0.211 HD
ENDBRANCH  36  37
ENDBRANCH  33  36
ENDBRANCH  31  33
ENDBRANCH  28  29
BRANCH  28  39
ATOM     39  CB  HIS A   4      14.132  17.375  35.383  0.00  0.00    +0.076 C 
BRANCH  39  40
ATOM     40  CG  HIS A   4      12.660  17.129  35.418  0.00  0.00    +0.082 A 
ATOM     41  ND1 HIS A   4      11.770  18.052  35.923  0.00  0.00    -0.227 NA
ATOM     42  CE1 HIS A   4      10.540  17.586  35.791  0.00  0.00    +0.199 A 
ATOM     43  NE2 HIS A   4      10.600  16.411  35.191  0.00  0.00    -0.221 NA
ATOM     44  CD2 HIS A   4      11.913  16.102  34.943  0.00  0.00    +0.115 A 
ENDBRANCH  39  40
ENDBRANCH  28  39
ENDBRANCH  25  28
ENDBRANCH   1  24
TORSDOF 19
REMARK  Name = ../refined-set-2016/2w8j/2w8j_pocket.pdb
REMARK  240 active torsions:
REMARK  status: ('A' for Active; 'I' for Inactive)
REMARK    1  A    between atoms: _1  and  _3
REMARK    2  A    between atoms: _3  and  _4
REMARK    3  A    between atoms: _3  and  _6
REMARK    4  A    between atoms: _6  and  _7
REMARK    5  A    between atoms: _10  and  _12
REMARK    6  A    between atoms: _12  and  _13
REMARK    7  A    between atoms: _12  and  _15
REMARK    8  A    between atoms: _15  and  _16
REMARK    9  A    between atoms: _21  and  _22
REMARK   10  A    between atoms: _24  and  _26
REMARK   11  A    between atoms: _26  and  _27
REMARK   12  A    between atoms: _26  and  _29
REMARK   13  A    between atoms: _29  and  _30
REMARK   14  A    between atoms: _35  and  _36
REMARK   15  A    between atoms: _38  and  _40
REMARK   16  A    between atoms: _40  and  _41
REMARK   17  A    between atoms: _40  and  _43
REMARK   18  A    between atoms: _43  and  _44
REMARK   19  A    between atoms: _46  and  _48
REMARK   20  A    between atoms: _48  and  _49
REMARK   21  A    between atoms: _48  and  _51
REMARK   22  A    between atoms: _51  and  _52
REMARK   23  A    between atoms: _55  and  _57
REMARK   24  A    between atoms: _57  and  _58
REMARK   25  A    between atoms: _60  and  _62
REMARK   26  A    between atoms: _62  and  _63
REMARK   27  A    between atoms: _62  and  _65
REMARK   28  A    between atoms: _65  and  _66
REMARK   29  A    between atoms: _71  and  _72
REMARK   30  A    between atoms: _74  and  _76
REMARK   31  A    between atoms: _76  and  _77
REMARK   32  A    between atoms: _76  and  _79
REMARK   33  A    between atoms: _79  and  _80
REMARK   34  A    between atoms: _80  and  _81
REMARK   35  A    between atoms: _83  and  _85
REMARK   36  A    between atoms: _85  and  _86
REMARK   37  A    between atoms: _89  and  _91
REMARK   38  A    between atoms: _91  and  _92
REMARK   39  A    between atoms: _91  and  _94
REMARK   40  A    between atoms: _94  and  _95
REMARK   41  A    between atoms: _100  and  _102
REMARK   42  A    between atoms: _102  and  _103
REMARK   43  A    between atoms: _102  and  _105
REMARK   44  A    between atoms: _105  and  _106
REMARK   45  A    between atoms: _109  and  _111
REMARK   46  A    between atoms: _111  and  _112
REMARK   47  A    between atoms: _111  and  _114
REMARK   48  A    between atoms: _114  and  _115
REMARK   49  A    between atoms: _117  and  _119
REMARK   50  A    between atoms: _119  and  _120
REMARK   51  A    between atoms: _119  and  _122
REMARK   52  A    between atoms: _122  and  _123
REMARK   53  A    between atoms: _128  and  _130
REMARK   54  A    between atoms: _130  and  _131
REMARK   55  A    between atoms: _134  and  _136
REMARK   56  A    between atoms: _136  and  _137
REMARK   57  A    between atoms: _136  and  _139
REMARK   58  A    between atoms: _139  and  _140
REMARK   59  A    between atoms: _142  and  _144
REMARK   60  A    between atoms: _144  and  _145
REMARK   61  A    between atoms: _144  and  _147
REMARK   62  A    between atoms: _147  and  _148
REMARK   63  A    between atoms: _151  and  _153
REMARK   64  A    between atoms: _153  and  _154
REMARK   65  A    between atoms: _153  and  _156
REMARK   66  A    between atoms: _156  and  _157
REMARK   67  A    between atoms: _160  and  _162
REMARK   68  A    between atoms: _162  and  _163
REMARK   69  A    between atoms: _162  and  _165
REMARK   70  A    between atoms: _165  and  _166
REMARK   71  A    between atoms: _166  and  _167
REMARK   72  A    between atoms: _170  and  _172
REMARK   73  A    between atoms: _172  and  _173
REMARK   74  A    between atoms: _175  and  _177
REMARK   75  A    between atoms: _177  and  _178
REMARK   76  A    between atoms: _177  and  _180
REMARK   77  A    between atoms: _183  and  _185
REMARK   78  A    between atoms: _185  and  _186
REMARK   79  A    between atoms: _185  and  _188
REMARK   80  A    between atoms: _188  and  _189
REMARK   81  A    between atoms: _194  and  _195
REMARK   82  A    between atoms: _197  and  _199
REMARK   83  A    between atoms: _199  and  _200
REMARK   84  A    between atoms: _199  and  _202
REMARK   85  A    between atoms: _202  and  _203
REMARK   86  A    between atoms: _205  and  _207
REMARK   87  A    between atoms: _207  and  _208
REMARK   88  A    between atoms: _207  and  _210
REMARK   89  A    between atoms: _210  and  _211
REMARK   90  A    between atoms: _211  and  _212
REMARK   91  A    between atoms: _214  and  _216
REMARK   92  A    between atoms: _216  and  _217
REMARK   93  A    between atoms: _216  and  _219
REMARK   94  A    between atoms: _219  and  _220
REMARK   95  A    between atoms: _223  and  _225
REMARK   96  A    between atoms: _225  and  _226
REMARK   97  A    between atoms: _225  and  _228
REMARK   98  A    between atoms: _228  and  _229
REMARK   99  A    between atoms: _229  and  _230
REMARK  100  A    between atoms: _233  and  _235
REMARK  101  A    between atoms: _235  and  _236
REMARK  102  A    between atoms: _239  and  _241
REMARK  103  A    between atoms: _241  and  _242
REMARK  104  A    between atoms: _241  and  _244
REMARK  105  A    between atoms: _244  and  _245
REMARK  106  A    between atoms: _250  and  _252
REMARK  107  A    between atoms: _252  and  _253
REMARK  108  A    between atoms: _252  and  _255
REMARK  109  A    between atoms: _255  and  _256
REMARK  110  A    between atoms: _258  and  _260
REMARK  111  A    between atoms: _260  and  _261
REMARK  112  A    between atoms: _260  and  _263
REMARK  113  A    between atoms: _266  and  _268
REMARK  114  A    between atoms: _268  and  _269
REMARK  115  A    between atoms: _271  and  _273
REMARK  116  A    between atoms: _273  and  _274
REMARK  117  A    between atoms: _273  and  _276
REMARK  118  A    between atoms: _276  and  _277
REMARK  119  A    between atoms: _280  and  _282
REMARK  120  A    between atoms: _282  and  _283
REMARK  121  A    between atoms: _282  and  _285
REMARK  122  A    between atoms: _285  and  _286
REMARK  123  A    between atoms: _292  and  _294
REMARK  124  A    between atoms: _294  and  _295
REMARK  125  A    between atoms: _294  and  _297
REMARK  126  A    between atoms: _297  and  _298
REMARK  127  A    between atoms: _300  and  _302
REMARK  128  A    between atoms: _302  and  _303
REMARK  129  A    between atoms: _302  and  _305
REMARK  130  A    between atoms: _305  and  _306
REMARK  131  A    between atoms: _306  and  _307
REMARK  132  A    between atoms: _307  and  _308
REMARK  133  A    between atoms: _308  and  _309
REMARK  134  A    between atoms: _313  and  _315
REMARK  135  A    between atoms: _315  and  _316
REMARK  136  A    between atoms: _315  and  _318
REMARK  137  A    between atoms: _318  and  _319
REMARK  138  A    between atoms: _322  and  _324
REMARK  139  A    between atoms: _324  and  _325
REMARK  140  A    between atoms: _324  and  _327
REMARK  141  A    between atoms: _330  and  _332
REMARK  142  A    between atoms: _332  and  _333
REMARK  143  A    between atoms: _335  and  _337
REMARK  144  A    between atoms: _337  and  _338
REMARK  145  A    between atoms: _340  and  _342
REMARK  146  A    between atoms: _342  and  _343
REMARK  147  A    between atoms: _342  and  _345
REMARK  148  A    between atoms: _345  and  _346
REMARK  149  A    between atoms: _352  and  _354
REMARK  150  A    between atoms: _354  and  _355
REMARK  151  A    between atoms: _354  and  _357
REMARK  152  A    between atoms: _357  and  _358
REMARK  153  A    between atoms: _361  and  _363
REMARK  154  A    between atoms: _363  and  _364
REMARK  155  A    between atoms: _363  and  _366
REMARK  156  A    between atoms: _366  and  _367
REMARK  157  A    between atoms: _367  and  _368
REMARK  158  A    between atoms: _368  and  _369
REMARK  159  A    between atoms: _378  and  _380
REMARK  160  A    between atoms: _380  and  _381
REMARK  161  A    between atoms: _384  and  _386
REMARK  162  A    between atoms: _386  and  _387
REMARK  163  A    between atoms: _386  and  _389
REMARK  164  A    between atoms: _389  and  _390
REMARK  165  A    between atoms: _390  and  _391
REMARK  166  A    between atoms: _391  and  _392
REMARK  167  A    between atoms: _401  and  _403
REMARK  168  A    between atoms: _403  and  _404
REMARK  169  A    between atoms: _403  and  _406
REMARK  170  A    between atoms: _406  and  _407
REMARK  171  A    between atoms: _410  and  _412
REMARK  172  A    between atoms: _412  and  _413
REMARK  173  A    between atoms: _412  and  _415
REMARK  174  A    between atoms: _415  and  _416
REMARK  175  A    between atoms: _421  and  _423
REMARK  176  A    between atoms: _423  and  _424
REMARK  177  A    between atoms: _426  and  _428
REMARK  178  A    between atoms: _428  and  _429
REMARK  179  A    between atoms: _428  and  _431
REMARK  180  A    between atoms: _431  and  _432
REMARK  181  A    between atoms: _434  and  _436
REMARK  182  A    between atoms: _436  and  _437
REMARK  183  A    between atoms: _436  and  _439
REMARK  184  A    between atoms: _439  and  _440
REMARK  185  A    between atoms: _440  and  _441
REMARK  186  A    between atoms: _441  and  _442
REMARK  187  A    between atoms: _451  and  _453
REMARK  188  A    between atoms: _453  and  _454
REMARK  189  A    between atoms: _453  and  _456
REMARK  190  A    between atoms: _456  and  _457
REMARK  191  A    between atoms: _457  and  _458
REMARK  192  A    between atoms: _460  and  _462
REMARK  193  A    between atoms: _462  and  _463
REMARK  194  A    between atoms: _462  and  _465
REMARK  195  A    between atoms: _465  and  _466
REMARK  196  A    between atoms: _469  and  _471
REMARK  197  A    between atoms: _471  and  _472
REMARK  198  A    between atoms: _471  and  _474
REMARK  199  A    between atoms: _474  and  _475
REMARK  200  A    between atoms: _480  and  _482
REMARK  201  A    between atoms: _482  and  _483
REMARK  202  A    between atoms: _485  and  _487
REMARK  203  A    between atoms: _487  and  _488
REMARK  204  A    between atoms: _487  and  _490
REMARK  205  A    between atoms: _490  and  _491
REMARK  206  A    between atoms: _493  and  _495
REMARK  207  A    between atoms: _495  and  _496
REMARK  208  A    between atoms: _495  and  _498
REMARK  209  A    between atoms: _498  and  _499
REMARK  210  A    between atoms: _499  and  _500
REMARK  211  A    between atoms: _502  and  _504
REMARK  212  A    between atoms: _504  and  _505
REMARK  213  A    between atoms: _504  and  _507
REMARK  214  A    between atoms: _507  and  _508
REMARK  215  A    between atoms: _508  and  _509
REMARK  216  A    between atoms: _509  and  _510
REMARK  217  A    between atoms: _520  and  _521
REMARK  218  A    between atoms: _526  and  _528
REMARK  219  A    between atoms: _528  and  _529
REMARK  220  A    between atoms: _528  and  _531
REMARK  221  A    between atoms: _531  and  _532
REMARK  222  A    between atoms: _537  and  _538
REMARK  223  A    between atoms: _540  and  _542
REMARK  224  A    between atoms: _542  and  _543
REMARK  225  A    between atoms: _542  and  _545
REMARK  226  A    between atoms: _545  and  _546
REMARK  227  A    between atoms: _549  and  _551
REMARK  228  A    between atoms: _551  and  _552
REMARK  229  A    between atoms: _551  and  _554
REMARK  230  A    between atoms: _554  and  _555
REMARK  231  A    between atoms: _561  and  _563
REMARK  232  A    between atoms: _563  and  _564
REMARK  233  A    between atoms: _563  and  _566
REMARK  234  A    between atoms: _566  and  _567
REMARK  235  A    between atoms: _570  and  _572
REMARK  236  A    between atoms: _572  and  _573
REMARK  237  A    between atoms: _576  and  _578
REMARK  238  A    between atoms: _578  and  _579
REMARK  239  A    between atoms: _578  and  _581
REMARK  240  A    between atoms: _581  and  _582
REMARK                            x       y       z     vdW  Elec       q    Type
REMARK                         _______ _______ _______ _____ _____    ______ ____
ROOT
ATOM      1  CA  PHE A   4       9.331  22.993  26.419  0.00  0.00    +0.153 C 
ENDROOT
BRANCH   1   2
ATOM      2  C   PHE A   4       8.693  23.393  27.747  0.00  0.00    +0.241 C 
ATOM      3  N   SER A   5       8.154  22.434  28.511  0.00  0.00    -0.295 N 
ATOM      4  H   SER A   5       8.330  21.437  28.275  0.00  0.00    +0.150 HD
ATOM      5  O   PHE A   4       8.674  24.582  28.066  0.00  0.00    -0.273 OA
BRANCH   3   6
ATOM      6  CA  SER A   5       7.316  22.762  29.681  0.00  0.00    +0.178 C 
BRANCH   6   7
ATOM      7  C   SER A   5       8.040  22.873  31.022  0.00  0.00    +0.243 C 
ATOM      8  O   SER A   5       7.411  22.803  32.084  0.00  0.00    -0.273 OA
ATOM      9  N   LYS A   6       9.350  23.038  30.993  0.00  0.00    -0.298 N 
ATOM     10  H   LYS A   6       9.849  23.043  30.081  0.00  0.00    +0.150 HD
BRANCH   9  11
ATOM     11  CA  LYS A   6      10.098  23.213  32.224  0.00  0.00    +0.137 C 
BRANCH  11  12
ATOM     12  C   LYS A   6      10.930  24.476  32.061  0.00  0.00    +0.227 C 
ATOM     13  O   LYS A   6      10.368  25.567  32.114  0.00  0.00    -0.286 OA
ENDBRANCH  11  12
BRANCH  11  14
ATOM     14  CB  LYS A   6      10.878  21.934  32.570  0.00  0.00    +0.028 C 
BRANCH  14  15
ATOM     15  CG  LYS A   6       9.976  20.686  32.697  0.00  0.00    -0.000 C 
BRANCH  15  16
ATOM     16  CD  LYS A   6       9.170  20.709  33.949  0.00  0.00    -0.024 C 
BRANCH  16  17
ATOM     17  CE  LYS A   6       8.020  19.697  33.909  0.00  0.00    -0.086 C 
BRANCH  17  18
ATOM     18  NZ  LYS A   6       6.827  20.231  33.176  0.00  0.00    +0.380 N 
ATOM     19  HZ1 LYS A   6       6.487  21.091  33.651  0.00  0.00    -0.089 HD
ATOM     20  HZ2 LYS A   6       6.074  19.514  33.173  0.00  0.00    -0.089 HD
ATOM     21  HZ3 LYS A   6       7.096  20.457  32.197  0.00  0.00    -0.089 HD
ENDBRANCH  17  18
ENDBRANCH  16  17
ENDBRANCH  15  16
ENDBRANCH  14  15
ENDBRANCH  11  14
ENDBRANCH   9  11
ENDBRANCH   6   7
BRANCH   6  22
ATOM     22  CB  SER A   5       6.157  21.773  29.802  0.00  0.00    +0.166 C 
BRANCH  22  23
ATOM     23  OG  SER A   5       6.584  20.514  30.283  0.00  0.00    -0.380 OA
ATOM     24  H   SER A   5       7.252  20.133  29.660  0.00  0.00    +0.211 HD
ENDBRANCH  22  23
ENDBRANCH   6  22
ENDBRANCH   3   6
ENDBRANCH   1   2
BRANCH   1  27
ATOM     25  C   THR A   3      10.410  20.835  26.657  0.00  0.00    +0.243 C 
ATOM     26  O   THR A   3      11.489  21.336  27.046  0.00  0.00    -0.273 OA
ATOM     27  N   PHE A   4       9.375  21.562  26.239  0.00  0.00    -0.297 N 
ATOM     28  H   PHE A   4       8.578  21.086  25.771  0.00  0.00    +0.150 HD
BRANCH  25  29
ATOM     29  CA  THR A   3      10.209  19.334  26.629  0.00  0.00    +0.176 C 
BRANCH  29  31
ATOM     30  C   GLY A   2      11.802  17.674  25.801  0.00  0.00    +0.243 C 
ATOM     31  N   THR A   3      11.507  18.668  26.625  0.00  0.00    -0.295 N 
ATOM     32  H   THR A   3      12.232  18.988  27.298  0.00  0.00    +0.150 HD
ATOM     33  O   GLY A   2      11.015  17.224  24.958  0.00  0.00    -0.273 OA
BRANCH  30  34
ATOM     34  CA  GLY A   2      13.186  17.102  25.988  0.00  0.00    +0.176 C 
BRANCH  34  37
ATOM     35  C   VAL A   1      14.331  15.081  25.304  0.00  0.00    +0.238 C 
ATOM     36  O   VAL A   1      14.961  15.009  26.364  0.00  0.00    -0.274 OA
ATOM     37  N   GLY A   2      13.493  16.072  25.028  0.00  0.00    -0.296 N 
ATOM     38  H   GLY A   2      13.044  16.106  24.090  0.00  0.00    +0.150 HD
BRANCH  35  39
ATOM     39  CA  VAL A   1      14.519  14.051  24.192  0.00  0.00    +0.145 C 
BRANCH  39  40
ATOM     40  CB  VAL A   1      13.533  12.838  24.321  0.00  0.00    +0.025 C 
ATOM     41  CG2 VAL A   1      13.766  12.065  25.609  0.00  0.00    +0.002 C 
ATOM     42  CG1 VAL A   1      12.072  13.307  24.223  0.00  0.00    +0.002 C 
ENDBRANCH  39  40
BRANCH  39  43
ATOM     43  N   VAL A   1      15.920  13.633  24.176  0.00  0.00    -0.238 NA
ATOM     44  H   VAL A   1      16.253  12.993  24.925  0.00  0.00    +0.142 HD
ENDBRANCH  39  43
ENDBRANCH  35  39
ENDBRANCH  34  37
ENDBRANCH  30  34
ENDBRANCH  29  31
BRANCH  29  45
ATOM     45  CB  THR A   3       9.339  18.894  27.833  0.00  0.00    +0.137 C 
ATOM     46  CG2 THR A   3      10.020  19.185  29.164  0.00  0.00    +0.034 C 
BRANCH  45  47
ATOM     47  OG1 THR A   3       8.097  19.601  27.824  0.00  0.00    -0.382 OA
ATOM     48  HG1 THR A   3       7.549  19.313  28.597  0.00  0.00    +0.210 HD
ENDBRANCH  45  47
ENDBRANCH  29  45
ENDBRANCH  25  29
ENDBRANCH   1  27
BRANCH   1  49
ATOM     49  CB  PHE A   4       8.537  23.662  25.285  0.00  0.00    +0.055 C 
BRANCH  49  50
ATOM     50  CG  PHE A   4       9.172  23.560  23.910  0.00  0.00    -0.020 A 
ATOM     51  CD2 PHE A   4      10.505  23.207  23.734  0.00  0.00    -0.004 A 
ATOM     52  CE2 PHE A   4      11.060  23.139  22.466  0.00  0.00    -0.000 A 
ATOM     53  CZ  PHE A   4      10.289  23.424  21.363  0.00  0.00    -0.000 A 
ATOM     54  CE1 PHE A   4       8.963  23.787  21.523  0.00  0.00    -0.000 A 
ATOM     55  CD1 PHE A   4       8.422  23.869  22.784  0.00  0.00    -0.004 A 
ENDBRANCH  49  50
ENDBRANCH   1  49
TORSDOF 24
REMARK  Name = ../refined-set-2016/2w8j/2w8j_pocket.pdb
REMARK  240 active torsions:
REMARK  status: ('A' for Active; 'I' for Inactive)
REMARK    1  A    between atoms: _1  and  _3
REMARK    2  A    between atoms: _3  and  _4
REMARK    3  A    between atoms: _3  and  _6
REMARK    4  A    between atoms: _6  and  _7
REMARK    5  A    between atoms: _10  and  _12
REMARK    6  A    between atoms: _12  and  _13
REMARK    7  A    between atoms: _12  and  _15
REMARK    8  A    between atoms: _15  and  _16
REMARK    9  A    between atoms: _21  and  _22
REMARK   10  A    between atoms: _24  and  _26
REMARK   11  A    between atoms: _26  and  _27
REMARK   12  A    between atoms: _26  and  _29
REMARK   13  A    between atoms: _29  and  _30
REMARK   14  A    between atoms: _35  and  _36
REMARK   15  A    between atoms: _38  and  _40
REMARK   16  A    between atoms: _40  and  _41
REMARK   17  A    between atoms: _40  and  _43
REMARK   18  A    between atoms: _43  and  _44
REMARK   19  A    between atoms: _46  and  _48
REMARK   20  A    between atoms: _48  and  _49
REMARK   21  A    between atoms: _48  and  _51
REMARK   22  A    between atoms: _51  and  _52
REMARK   23  A    between atoms: _55  and  _57
REMARK   24  A    between atoms: _57  and  _58
REMARK   25  A    between atoms: _60  and  _62
REMARK   26  A    between atoms: _62  and  _63
REMARK   27  A    between atoms: _62  and  _65
REMARK   28  A    between atoms: _65  and  _66
REMARK   29  A    between atoms: _71  and  _72
REMARK   30  A    between atoms: _74  and  _76
REMARK   31  A    between atoms: _76  and  _77
REMARK   32  A    between atoms: _76  and  _79
REMARK   33  A    between atoms: _79  and  _80
REMARK   34  A    between atoms: _80  and  _81
REMARK   35  A    between atoms: _83  and  _85
REMARK   36  A    between atoms: _85  and  _86
REMARK   37  A    between atoms: _89  and  _91
REMARK   38  A    between atoms: _91  and  _92
REMARK   39  A    between atoms: _91  and  _94
REMARK   40  A    between atoms: _94  and  _95
REMARK   41  A    between atoms: _100  and  _102
REMARK   42  A    between atoms: _102  and  _103
REMARK   43  A    between atoms: _102  and  _105
REMARK   44  A    between atoms: _105  and  _106
REMARK   45  A    between atoms: _109  and  _111
REMARK   46  A    between atoms: _111  and  _112
REMARK   47  A    between atoms: _111  and  _114
REMARK   48  A    between atoms: _114  and  _115
REMARK   49  A    between atoms: _117  and  _119
REMARK   50  A    between atoms: _119  and  _120
REMARK   51  A    between atoms: _119  and  _122
REMARK   52  A    between atoms: _122  and  _123
REMARK   53  A    between atoms: _128  and  _130
REMARK   54  A    between atoms: _130  and  _131
REMARK   55  A    between atoms: _134  and  _136
REMARK   56  A    between atoms: _136  and  _137
REMARK   57  A    between atoms: _136  and  _139
REMARK   58  A    between atoms: _139  and  _140
REMARK   59  A    between atoms: _142  and  _144
REMARK   60  A    between atoms: _144  and  _145
REMARK   61  A    between atoms: _144  and  _147
REMARK   62  A    between atoms: _147  and  _148
REMARK   63  A    between atoms: _151  and  _153
REMARK   64  A    between atoms: _153  and  _154
REMARK   65  A    between atoms: _153  and  _156
REMARK   66  A    between atoms: _156  and  _157
REMARK   67  A    between atoms: _160  and  _162
REMARK   68  A    between atoms: _162  and  _163
REMARK   69  A    between atoms: _162  and  _165
REMARK   70  A    between atoms: _165  and  _166
REMARK   71  A    between atoms: _166  and  _167
REMARK   72  A    between atoms: _170  and  _172
REMARK   73  A    between atoms: _172  and  _173
REMARK   74  A    between atoms: _175  and  _177
REMARK   75  A    between atoms: _177  and  _178
REMARK   76  A    between atoms: _177  and  _180
REMARK   77  A    between atoms: _183  and  _185
REMARK   78  A    between atoms: _185  and  _186
REMARK   79  A    between atoms: _185  and  _188
REMARK   80  A    between atoms: _188  and  _189
REMARK   81  A    between atoms: _194  and  _195
REMARK   82  A    between atoms: _197  and  _199
REMARK   83  A    between atoms: _199  and  _200
REMARK   84  A    between atoms: _199  and  _202
REMARK   85  A    between atoms: _202  and  _203
REMARK   86  A    between atoms: _205  and  _207
REMARK   87  A    between atoms: _207  and  _208
REMARK   88  A    between atoms: _207  and  _210
REMARK   89  A    between atoms: _210  and  _211
REMARK   90  A    between atoms: _211  and  _212
REMARK   91  A    between atoms: _214  and  _216
REMARK   92  A    between atoms: _216  and  _217
REMARK   93  A    between atoms: _216  and  _219
REMARK   94  A    between atoms: _219  and  _220
REMARK   95  A    between atoms: _223  and  _225
REMARK   96  A    between atoms: _225  and  _226
REMARK   97  A    between atoms: _225  and  _228
REMARK   98  A    between atoms: _228  and  _229
REMARK   99  A    between atoms: _229  and  _230
REMARK  100  A    between atoms: _233  and  _235
REMARK  101  A    between atoms: _235  and  _236
REMARK  102  A    between atoms: _239  and  _241
REMARK  103  A    between atoms: _241  and  _242
REMARK  104  A    between atoms: _241  and  _244
REMARK  105  A    between atoms: _244  and  _245
REMARK  106  A    between atoms: _250  and  _252
REMARK  107  A    between atoms: _252  and  _253
REMARK  108  A    between atoms: _252  and  _255
REMARK  109  A    between atoms: _255  and  _256
REMARK  110  A    between atoms: _258  and  _260
REMARK  111  A    between atoms: _260  and  _261
REMARK  112  A    between atoms: _260  and  _263
REMARK  113  A    between atoms: _266  and  _268
REMARK  114  A    between atoms: _268  and  _269
REMARK  115  A    between atoms: _271  and  _273
REMARK  116  A    between atoms: _273  and  _274
REMARK  117  A    between atoms: _273  and  _276
REMARK  118  A    between atoms: _276  and  _277
REMARK  119  A    between atoms: _280  and  _282
REMARK  120  A    between atoms: _282  and  _283
REMARK  121  A    between atoms: _282  and  _285
REMARK  122  A    between atoms: _285  and  _286
REMARK  123  A    between atoms: _292  and  _294
REMARK  124  A    between atoms: _294  and  _295
REMARK  125  A    between atoms: _294  and  _297
REMARK  126  A    between atoms: _297  and  _298
REMARK  127  A    between atoms: _300  and  _302
REMARK  128  A    between atoms: _302  and  _303
REMARK  129  A    between atoms: _302  and  _305
REMARK  130  A    between atoms: _305  and  _306
REMARK  131  A    between atoms: _306  and  _307
REMARK  132  A    between atoms: _307  and  _308
REMARK  133  A    between atoms: _308  and  _309
REMARK  134  A    between atoms: _313  and  _315
REMARK  135  A    between atoms: _315  and  _316
REMARK  136  A    between atoms: _315  and  _318
REMARK  137  A    between atoms: _318  and  _319
REMARK  138  A    between atoms: _322  and  _324
REMARK  139  A    between atoms: _324  and  _325
REMARK  140  A    between atoms: _324  and  _327
REMARK  141  A    between atoms: _330  and  _332
REMARK  142  A    between atoms: _332  and  _333
REMARK  143  A    between atoms: _335  and  _337
REMARK  144  A    between atoms: _337  and  _338
REMARK  145  A    between atoms: _340  and  _342
REMARK  146  A    between atoms: _342  and  _343
REMARK  147  A    between atoms: _342  and  _345
REMARK  148  A    between atoms: _345  and  _346
REMARK  149  A    between atoms: _352  and  _354
REMARK  150  A    between atoms: _354  and  _355
REMARK  151  A    between atoms: _354  and  _357
REMARK  152  A    between atoms: _357  and  _358
REMARK  153  A    between atoms: _361  and  _363
REMARK  154  A    between atoms: _363  and  _364
REMARK  155  A    between atoms: _363  and  _366
REMARK  156  A    between atoms: _366  and  _367
REMARK  157  A    between atoms: _367  and  _368
REMARK  158  A    between atoms: _368  and  _369
REMARK  159  A    between atoms: _378  and  _380
REMARK  160  A    between atoms: _380  and  _381
REMARK  161  A    between atoms: _384  and  _386
REMARK  162  A    between atoms: _386  and  _387
REMARK  163  A    between atoms: _386  and  _389
REMARK  164  A    between atoms: _389  and  _390
REMARK  165  A    between atoms: _390  and  _391
REMARK  166  A    between atoms: _391  and  _392
REMARK  167  A    between atoms: _401  and  _403
REMARK  168  A    between atoms: _403  and  _404
REMARK  169  A    between atoms: _403  and  _406
REMARK  170  A    between atoms: _406  and  _407
REMARK  171  A    between atoms: _410  and  _412
REMARK  172  A    between atoms: _412  and  _413
REMARK  173  A    between atoms: _412  and  _415
REMARK  174  A    between atoms: _415  and  _416
REMARK  175  A    between atoms: _421  and  _423
REMARK  176  A    between atoms: _423  and  _424
REMARK  177  A    between atoms: _426  and  _428
REMARK  178  A    between atoms: _428  and  _429
REMARK  179  A    between atoms: _428  and  _431
REMARK  180  A    between atoms: _431  and  _432
REMARK  181  A    between atoms: _434  and  _436
REMARK  182  A    between atoms: _436  and  _437
REMARK  183  A    between atoms: _436  and  _439
REMARK  184  A    between atoms: _439  and  _440
REMARK  185  A    between atoms: _440  and  _441
REMARK  186  A    between atoms: _441  and  _442
REMARK  187  A    between atoms: _451  and  _453
REMARK  188  A    between atoms: _453  and  _454
REMARK  189  A    between atoms: _453  and  _456
REMARK  190  A    between atoms: _456  and  _457
REMARK  191  A    between atoms: _457  and  _458
REMARK  192  A    between atoms: _460  and  _462
REMARK  193  A    between atoms: _462  and  _463
REMARK  194  A    between atoms: _462  and  _465
REMARK  195  A    between atoms: _465  and  _466
REMARK  196  A    between atoms: _469  and  _471
REMARK  197  A    between atoms: _471  and  _472
REMARK  198  A    between atoms: _471  and  _474
REMARK  199  A    between atoms: _474  and  _475
REMARK  200  A    between atoms: _480  and  _482
REMARK  201  A    between atoms: _482  and  _483
REMARK  202  A    between atoms: _485  and  _487
REMARK  203  A    between atoms: _487  and  _488
REMARK  204  A    between atoms: _487  and  _490
REMARK  205  A    between atoms: _490  and  _491
REMARK  206  A    between atoms: _493  and  _495
REMARK  207  A    between atoms: _495  and  _496
REMARK  208  A    between atoms: _495  and  _498
REMARK  209  A    between atoms: _498  and  _499
REMARK  210  A    between atoms: _499  and  _500
REMARK  211  A    between atoms: _502  and  _504
REMARK  212  A    between atoms: _504  and  _505
REMARK  213  A    between atoms: _504  and  _507
REMARK  214  A    between atoms: _507  and  _508
REMARK  215  A    between atoms: _508  and  _509
REMARK  216  A    between atoms: _509  and  _510
REMARK  217  A    between atoms: _520  and  _521
REMARK  218  A    between atoms: _526  and  _528
REMARK  219  A    between atoms: _528  and  _529
REMARK  220  A    between atoms: _528  and  _531
REMARK  221  A    between atoms: _531  and  _532
REMARK  222  A    between atoms: _537  and  _538
REMARK  223  A    between atoms: _540  and  _542
REMARK  224  A    between atoms: _542  and  _543
REMARK  225  A    between atoms: _542  and  _545
REMARK  226  A    between atoms: _545  and  _546
REMARK  227  A    between atoms: _549  and  _551
REMARK  228  A    between atoms: _551  and  _552
REMARK  229  A    between atoms: _551  and  _554
REMARK  230  A    between atoms: _554  and  _555
REMARK  231  A    between atoms: _561  and  _563
REMARK  232  A    between atoms: _563  and  _564
REMARK  233  A    between atoms: _563  and  _566
REMARK  234  A    between atoms: _566  and  _567
REMARK  235  A    between atoms: _570  and  _572
REMARK  236  A    between atoms: _572  and  _573
REMARK  237  A    between atoms: _576  and  _578
REMARK  238  A    between atoms: _578  and  _579
REMARK  239  A    between atoms: _578  and  _581
REMARK  240  A    between atoms: _581  and  _582
REMARK                            x       y       z     vdW  Elec       q    Type
REMARK                         _______ _______ _______ _____ _____    ______ ____
ROOT
ATOM      1  CA  GLY A   3       5.868  21.126  23.176  0.00  0.00    +0.176 C 
ENDROOT
BRANCH   1   3
ATOM      2  C   VAL A   2       4.922  23.017  24.413  0.00  0.00    +0.241 C 
ATOM      3  N   GLY A   3       5.177  21.714  24.317  0.00  0.00    -0.295 N 
ATOM      4  H   GLY A   3       4.870  21.089  25.089  0.00  0.00    +0.150 HD
ATOM      5  O   VAL A   2       5.227  23.852  23.547  0.00  0.00    -0.273 OA
BRANCH   2   6
ATOM      6  CA  VAL A   2       4.209  23.439  25.678  0.00  0.00    +0.148 C 
BRANCH   6   9
ATOM      7  C   THR A   1       5.264  25.175  26.988  0.00  0.00    +0.241 C 
ATOM      8  O   THR A   1       5.718  24.313  27.762  0.00  0.00    -0.274 OA
ATOM      9  N   VAL A   2       4.490  24.838  25.971  0.00  0.00    -0.297 N 
ATOM     10  H   VAL A   2       4.076  25.581  25.372  0.00  0.00    +0.150 HD
BRANCH   7  11
ATOM     11  CA  THR A   1       5.576  26.672  27.201  0.00  0.00    +0.172 C 
BRANCH  11  12
ATOM     12  N   THR A   1       6.813  26.828  27.977  0.00  0.00    -0.236 NA
ATOM     13  H   THR A   1       7.579  26.135  27.853  0.00  0.00    +0.142 HD
ENDBRANCH  11  12
BRANCH  11  14
ATOM     14  CB  THR A   1       5.624  27.503  25.873  0.00  0.00    +0.135 C 
ATOM     15  CG2 THR A   1       6.680  26.987  24.911  0.00  0.00    +0.034 C 
BRANCH  14  16
ATOM     16  OG1 THR A   1       4.333  27.484  25.241  0.00  0.00    -0.383 OA
ATOM     17  HG1 THR A   1       4.369  28.010  24.403  0.00  0.00    +0.210 HD
ENDBRANCH  14  16
ENDBRANCH  11  14
ENDBRANCH   7  11
ENDBRANCH   6   9
BRANCH   6  18
ATOM     18  CB  VAL A   2       2.704  23.122  25.529  0.00  0.00    +0.027 C 
ATOM     19  CG2 VAL A   2       2.004  23.184  26.890  0.00  0.00    +0.002 C 
ATOM     20  CG1 VAL A   2       2.056  23.997  24.437  0.00  0.00    +0.002 C 
ENDBRANCH   6  18
ENDBRANCH   2   6
ENDBRANCH   1   3
BRANCH   1  21
ATOM     21  C   GLY A   3       6.938  20.144  23.610  0.00  0.00    +0.243 C 
ATOM     22  O   GLY A   3       7.406  20.168  24.753  0.00  0.00    -0.273 OA
ATOM     23  N   GLY A   4       7.333  19.287  22.681  0.00  0.00    -0.295 N 
ATOM     24  H   GLY A   4       6.878  19.321  21.747  0.00  0.00    +0.150 HD
BRANCH  23  25
ATOM     25  CA  GLY A   4       8.382  18.294  22.912  0.00  0.00    +0.176 C 
BRANCH  25  26
ATOM     26  C   GLY A   4       9.414  18.376  21.818  0.00  0.00    +0.243 C 
ATOM     27  N   PHE A   5      10.559  17.736  22.021  0.00  0.00    -0.298 N 
ATOM     28  H   PHE A   5      10.745  17.284  22.939  0.00  0.00    +0.150 HD
ATOM     29  O   GLY A   4       9.186  19.003  20.795  0.00  0.00    -0.273 OA
BRANCH  27  30
ATOM     30  CA  PHE A   5      11.554  17.665  20.962  0.00  0.00    +0.141 C 
BRANCH  30  31
ATOM     31  C   PHE A   5      12.490  16.488  21.117  0.00  0.00    +0.227 C 
ATOM     32  O   PHE A   5      12.677  15.969  22.219  0.00  0.00    -0.286 OA
ENDBRANCH  30  31
BRANCH  30  33
ATOM     33  CB  PHE A   5      12.386  18.951  20.874  0.00  0.00    +0.054 C 
BRANCH  33  34
ATOM     34  CG  PHE A   5      13.238  19.226  22.109  0.00  0.00    -0.020 A 
ATOM     35  CD2 PHE A   5      12.767  20.041  23.128  0.00  0.00    -0.004 A 
ATOM     36  CE2 PHE A   5      13.535  20.293  24.256  0.00  0.00    -0.000 A 
ATOM     37  CZ  PHE A   5      14.796  19.747  24.368  0.00  0.00    -0.000 A 
ATOM     38  CE1 PHE A   5      15.282  18.926  23.377  0.00  0.00    -0.000 A 
ATOM     39  CD1 PHE A   5      14.509  18.669  22.244  0.00  0.00    -0.004 A 
ENDBRANCH  33  34
ENDBRANCH  30  33
ENDBRANCH  27  30
ENDBRANCH  25  26
ENDBRANCH  23  25
ENDBRANCH   1  21
TORSDOF 15
REMARK  Name = ../refined-set-2016/2w8j/2w8j_pocket.pdb
REMARK  240 active torsions:
REMARK  status: ('A' for Active; 'I' for Inactive)
REMARK    1  A    between atoms: _1  and  _3
REMARK    2  A    between atoms: _3  and  _4
REMARK    3  A    between atoms: _3  and  _6
REMARK    4  A    between atoms: _6  and  _7
REMARK    5  A    between atoms: _10  and  _12
REMARK    6  A    between atoms: _12  and  _13
REMARK    7  A    between atoms: _12  and  _15
REMARK    8  A    between atoms: _15  and  _16
REMARK    9  A    between atoms: _21  and  _22
REMARK   10  A    between atoms: _24  and  _26
REMARK   11  A    between atoms: _26  and  _27
REMARK   12  A    between atoms: _26  and  _29
REMARK   13  A    between atoms: _29  and  _30
REMARK   14  A    between atoms: _35  and  _36
REMARK   15  A    between atoms: _38  and  _40
REMARK   16  A    between atoms: _40  and  _41
REMARK   17  A    between atoms: _40  and  _43
REMARK   18  A    between atoms: _43  and  _44
REMARK   19  A    between atoms: _46  and  _48
REMARK   20  A    between atoms: _48  and  _49
REMARK   21  A    between atoms: _48  and  _51
REMARK   22  A    between atoms: _51  and  _52
REMARK   23  A    between atoms: _55  and  _57
REMARK   24  A    between atoms: _57  and  _58
REMARK   25  A    between atoms: _60  and  _62
REMARK   26  A    between atoms: _62  and  _63
REMARK   27  A    between atoms: _62  and  _65
REMARK   28  A    between atoms: _65  and  _66
REMARK   29  A    between atoms: _71  and  _72
REMARK   30  A    between atoms: _74  and  _76
REMARK   31  A    between atoms: _76  and  _77
REMARK   32  A    between atoms: _76  and  _79
REMARK   33  A    between atoms: _79  and  _80
REMARK   34  A    between atoms: _80  and  _81
REMARK   35  A    between atoms: _83  and  _85
REMARK   36  A    between atoms: _85  and  _86
REMARK   37  A    between atoms: _89  and  _91
REMARK   38  A    between atoms: _91  and  _92
REMARK   39  A    between atoms: _91  and  _94
REMARK   40  A    between atoms: _94  and  _95
REMARK   41  A    between atoms: _100  and  _102
REMARK   42  A    between atoms: _102  and  _103
REMARK   43  A    between atoms: _102  and  _105
REMARK   44  A    between atoms: _105  and  _106
REMARK   45  A    between atoms: _109  and  _111
REMARK   46  A    between atoms: _111  and  _112
REMARK   47  A    between atoms: _111  and  _114
REMARK   48  A    between atoms: _114  and  _115
REMARK   49  A    between atoms: _117  and  _119
REMARK   50  A    between atoms: _119  and  _120
REMARK   51  A    between atoms: _119  and  _122
REMARK   52  A    between atoms: _122  and  _123
REMARK   53  A    between atoms: _128  and  _130
REMARK   54  A    between atoms: _130  and  _131
REMARK   55  A    between atoms: _134  and  _136
REMARK   56  A    between atoms: _136  and  _137
REMARK   57  A    between atoms: _136  and  _139
REMARK   58  A    between atoms: _139  and  _140
REMARK   59  A    between atoms: _142  and  _144
REMARK   60  A    between atoms: _144  and  _145
REMARK   61  A    between atoms: _144  and  _147
REMARK   62  A    between atoms: _147  and  _148
REMARK   63  A    between atoms: _151  and  _153
REMARK   64  A    between atoms: _153  and  _154
REMARK   65  A    between atoms: _153  and  _156
REMARK   66  A    between atoms: _156  and  _157
REMARK   67  A    between atoms: _160  and  _162
REMARK   68  A    between atoms: _162  and  _163
REMARK   69  A    between atoms: _162  and  _165
REMARK   70  A    between atoms: _165  and  _166
REMARK   71  A    between atoms: _166  and  _167
REMARK   72  A    between atoms: _170  and  _172
REMARK   73  A    between atoms: _172  and  _173
REMARK   74  A    between atoms: _175  and  _177
REMARK   75  A    between atoms: _177  and  _178
REMARK   76  A    between atoms: _177  and  _180
REMARK   77  A    between atoms: _183  and  _185
REMARK   78  A    between atoms: _185  and  _186
REMARK   79  A    between atoms: _185  and  _188
REMARK   80  A    between atoms: _188  and  _189
REMARK   81  A    between atoms: _194  and  _195
REMARK   82  A    between atoms: _197  and  _199
REMARK   83  A    between atoms: _199  and  _200
REMARK   84  A    between atoms: _199  and  _202
REMARK   85  A    between atoms: _202  and  _203
REMARK   86  A    between atoms: _205  and  _207
REMARK   87  A    between atoms: _207  and  _208
REMARK   88  A    between atoms: _207  and  _210
REMARK   89  A    between atoms: _210  and  _211
REMARK   90  A    between atoms: _211  and  _212
REMARK   91  A    between atoms: _214  and  _216
REMARK   92  A    between atoms: _216  and  _217
REMARK   93  A    between atoms: _216  and  _219
REMARK   94  A    between atoms: _219  and  _220
REMARK   95  A    between atoms: _223  and  _225
REMARK   96  A    between atoms: _225  and  _226
REMARK   97  A    between atoms: _225  and  _228
REMARK   98  A    between atoms: _228  and  _229
REMARK   99  A    between atoms: _229  and  _230
REMARK  100  A    between atoms: _233  and  _235
REMARK  101  A    between atoms: _235  and  _236
REMARK  102  A    between atoms: _239  and  _241
REMARK  103  A    between atoms: _241  and  _242
REMARK  104  A    between atoms: _241  and  _244
REMARK  105  A    between atoms: _244  and  _245
REMARK  106  A    between atoms: _250  and  _252
REMARK  107  A    between atoms: _252  and  _253
REMARK  108  A    between atoms: _252  and  _255
REMARK  109  A    between atoms: _255  and  _256
REMARK  110  A    between atoms: _258  and  _260
REMARK  111  A    between atoms: _260  and  _261
REMARK  112  A    between atoms: _260  and  _263
REMARK  113  A    between atoms: _266  and  _268
REMARK  114  A    between atoms: _268  and  _269
REMARK  115  A    between atoms: _271  and  _273
REMARK  116  A    between atoms: _273  and  _274
REMARK  117  A    between atoms: _273  and  _276
REMARK  118  A    between atoms: _276  and  _277
REMARK  119  A    between atoms: _280  and  _282
REMARK  120  A    between atoms: _282  and  _283
REMARK  121  A    between atoms: _282  and  _285
REMARK  122  A    between atoms: _285  and  _286
REMARK  123  A    between atoms: _292  and  _294
REMARK  124  A    between atoms: _294  and  _295
REMARK  125  A    between atoms: _294  and  _297
REMARK  126  A    between atoms: _297  and  _298
REMARK  127  A    between atoms: _300  and  _302
REMARK  128  A    between atoms: _302  and  _303
REMARK  129  A    between atoms: _302  and  _305
REMARK  130  A    between atoms: _305  and  _306
REMARK  131  A    between atoms: _306  and  _307
REMARK  132  A    between atoms: _307  and  _308
REMARK  133  A    between atoms: _308  and  _309
REMARK  134  A    between atoms: _313  and  _315
REMARK  135  A    between atoms: _315  and  _316
REMARK  136  A    between atoms: _315  and  _318
REMARK  137  A    between atoms: _318  and  _319
REMARK  138  A    between atoms: _322  and  _324
REMARK  139  A    between atoms: _324  and  _325
REMARK  140  A    between atoms: _324  and  _327
REMARK  141  A    between atoms: _330  and  _332
REMARK  142  A    between atoms: _332  and  _333
REMARK  143  A    between atoms: _335  and  _337
REMARK  144  A    between atoms: _337  and  _338
REMARK  145  A    between atoms: _340  and  _342
REMARK  146  A    between atoms: _342  and  _343
REMARK  147  A    between atoms: _342  and  _345
REMARK  148  A    between atoms: _345  and  _346
REMARK  149  A    between atoms: _352  and  _354
REMARK  150  A    between atoms: _354  and  _355
REMARK  151  A    between atoms: _354  and  _357
REMARK  152  A    between atoms: _357  and  _358
REMARK  153  A    between atoms: _361  and  _363
REMARK  154  A    between atoms: _363  and  _364
REMARK  155  A    between atoms: _363  and  _366
REMARK  156  A    between atoms: _366  and  _367
REMARK  157  A    between atoms: _367  and  _368
REMARK  158  A    between atoms: _368  and  _369
REMARK  159  A    between atoms: _378  and  _380
REMARK  160  A    between atoms: _380  and  _381
REMARK  161  A    between atoms: _384  and  _386
REMARK  162  A    between atoms: _386  and  _387
REMARK  163  A    between atoms: _386  and  _389
REMARK  164  A    between atoms: _389  and  _390
REMARK  165  A    between atoms: _390  and  _391
REMARK  166  A    between atoms: _391  and  _392
REMARK  167  A    between atoms: _401  and  _403
REMARK  168  A    between atoms: _403  and  _404
REMARK  169  A    between atoms: _403  and  _406
REMARK  170  A    between atoms: _406  and  _407
REMARK  171  A    between atoms: _410  and  _412
REMARK  172  A    between atoms: _412  and  _413
REMARK  173  A    between atoms: _412  and  _415
REMARK  174  A    between atoms: _415  and  _416
REMARK  175  A    between atoms: _421  and  _423
REMARK  176  A    between atoms: _423  and  _424
REMARK  177  A    between atoms: _426  and  _428
REMARK  178  A    between atoms: _428  and  _429
REMARK  179  A    between atoms: _428  and  _431
REMARK  180  A    between atoms: _431  and  _432
REMARK  181  A    between atoms: _434  and  _436
REMARK  182  A    between atoms: _436  and  _437
REMARK  183  A    between atoms: _436  and  _439
REMARK  184  A    between atoms: _439  and  _440
REMARK  185  A    between atoms: _440  and  _441
REMARK  186  A    between atoms: _441  and  _442
REMARK  187  A    between atoms: _451  and  _453
REMARK  188  A    between atoms: _453  and  _454
REMARK  189  A    between atoms: _453  and  _456
REMARK  190  A    between atoms: _456  and  _457
REMARK  191  A    between atoms: _457  and  _458
REMARK  192  A    between atoms: _460  and  _462
REMARK  193  A    between atoms: _462  and  _463
REMARK  194  A    between atoms: _462  and  _465
REMARK  195  A    between atoms: _465  and  _466
REMARK  196  A    between atoms: _469  and  _471
REMARK  197  A    between atoms: _471  and  _472
REMARK  198  A    between atoms: _471  and  _474
REMARK  199  A    between atoms: _474  and  _475
REMARK  200  A    between atoms: _480  and  _482
REMARK  201  A    between atoms: _482  and  _483
REMARK  202  A    between atoms: _485  and  _487
REMARK  203  A    between atoms: _487  and  _488
REMARK  204  A    between atoms: _487  and  _490
REMARK  205  A    between atoms: _490  and  _491
REMARK  206  A    between atoms: _493  and  _495
REMARK  207  A    between atoms: _495  and  _496
REMARK  208  A    between atoms: _495  and  _498
REMARK  209  A    between atoms: _498  and  _499
REMARK  210  A    between atoms: _499  and  _500
REMARK  211  A    between atoms: _502  and  _504
REMARK  212  A    between atoms: _504  and  _505
REMARK  213  A    between atoms: _504  and  _507
REMARK  214  A    between atoms: _507  and  _508
REMARK  215  A    between atoms: _508  and  _509
REMARK  216  A    between atoms: _509  and  _510
REMARK  217  A    between atoms: _520  and  _521
REMARK  218  A    between atoms: _526  and  _528
REMARK  219  A    between atoms: _528  and  _529
REMARK  220  A    between atoms: _528  and  _531
REMARK  221  A    between atoms: _531  and  _532
REMARK  222  A    between atoms: _537  and  _538
REMARK  223  A    between atoms: _540  and  _542
REMARK  224  A    between atoms: _542  and  _543
REMARK  225  A    between atoms: _542  and  _545
REMARK  226  A    between atoms: _545  and  _546
REMARK  227  A    between atoms: _549  and  _551
REMARK  228  A    between atoms: _551  and  _552
REMARK  229  A    between atoms: _551  and  _554
REMARK  230  A    between atoms: _554  and  _555
REMARK  231  A    between atoms: _561  and  _563
REMARK  232  A    between atoms: _563  and  _564
REMARK  233  A    between atoms: _563  and  _566
REMARK  234  A    between atoms: _566  and  _567
REMARK  235  A    between atoms: _570  and  _572
REMARK  236  A    between atoms: _572  and  _573
REMARK  237  A    between atoms: _576  and  _578
REMARK  238  A    between atoms: _578  and  _579
REMARK  239  A    between atoms: _578  and  _581
REMARK  240  A    between atoms: _581  and  _582
REMARK                            x       y       z     vdW  Elec       q    Type
REMARK                         _______ _______ _______ _____ _____    ______ ____
ROOT
ATOM      1  CA  ILE A   1      13.972  19.273  42.773  0.00  0.00    +0.133 C 
ENDROOT
BRANCH   1   2
ATOM      2  N   ILE A   1      15.073  19.928  42.066  0.00  0.00    -0.239 NA
ATOM      3  H   ILE A   1      15.855  19.340  41.714  0.00  0.00    +0.142 HD
ENDBRANCH   1   2
BRANCH   1   4
ATOM      4  C   ILE A   1      14.446  18.840  44.163  0.00  0.00    +0.224 C 
ATOM      5  O   ILE A   1      15.471  18.173  44.292  0.00  0.00    -0.287 OA
ENDBRANCH   1   4
BRANCH   1   6
ATOM      6  CB  ILE A   1      13.453  18.029  41.995  0.00  0.00    +0.023 C 
ATOM      7  CG2 ILE A   1      12.498  17.211  42.862  0.00  0.00    +0.002 C 
BRANCH   6   8
ATOM      8  CG1 ILE A   1      12.756  18.452  40.706  0.00  0.00    +0.002 C 
ATOM      9  CD1 ILE A   1      12.453  17.287  39.771  0.00  0.00    +0.000 C 
ENDBRANCH   6   8
ENDBRANCH   1   6
TORSDOF 4
REMARK  Name = ../refined-set-2016/2w8j/2w8j_pocket.pdb
REMARK  240 active torsions:
REMARK  status: ('A' for Active; 'I' for Inactive)
REMARK    1  A    between atoms: _1  and  _3
REMARK    2  A    between atoms: _3  and  _4
REMARK    3  A    between atoms: _3  and  _6
REMARK    4  A    between atoms: _6  and  _7
REMARK    5  A    between atoms: _10  and  _12
REMARK    6  A    between atoms: _12  and  _13
REMARK    7  A    between atoms: _12  and  _15
REMARK    8  A    between atoms: _15  and  _16
REMARK    9  A    between atoms: _21  and  _22
REMARK   10  A    between atoms: _24  and  _26
REMARK   11  A    between atoms: _26  and  _27
REMARK   12  A    between atoms: _26  and  _29
REMARK   13  A    between atoms: _29  and  _30
REMARK   14  A    between atoms: _35  and  _36
REMARK   15  A    between atoms: _38  and  _40
REMARK   16  A    between atoms: _40  and  _41
REMARK   17  A    between atoms: _40  and  _43
REMARK   18  A    between atoms: _43  and  _44
REMARK   19  A    between atoms: _46  and  _48
REMARK   20  A    between atoms: _48  and  _49
REMARK   21  A    between atoms: _48  and  _51
REMARK   22  A    between atoms: _51  and  _52
REMARK   23  A    between atoms: _55  and  _57
REMARK   24  A    between atoms: _57  and  _58
REMARK   25  A    between atoms: _60  and  _62
REMARK   26  A    between atoms: _62  and  _63
REMARK   27  A    between atoms: _62  and  _65
REMARK   28  A    between atoms: _65  and  _66
REMARK   29  A    between atoms: _71  and  _72
REMARK   30  A    between atoms: _74  and  _76
REMARK   31  A    between atoms: _76  and  _77
REMARK   32  A    between atoms: _76  and  _79
REMARK   33  A    between atoms: _79  and  _80
REMARK   34  A    between atoms: _80  and  _81
REMARK   35  A    between atoms: _83  and  _85
REMARK   36  A    between atoms: _85  and  _86
REMARK   37  A    between atoms: _89  and  _91
REMARK   38  A    between atoms: _91  and  _92
REMARK   39  A    between atoms: _91  and  _94
REMARK   40  A    between atoms: _94  and  _95
REMARK   41  A    between atoms: _100  and  _102
REMARK   42  A    between atoms: _102  and  _103
REMARK   43  A    between atoms: _102  and  _105
REMARK   44  A    between atoms: _105  and  _106
REMARK   45  A    between atoms: _109  and  _111
REMARK   46  A    between atoms: _111  and  _112
REMARK   47  A    between atoms: _111  and  _114
REMARK   48  A    between atoms: _114  and  _115
REMARK   49  A    between atoms: _117  and  _119
REMARK   50  A    between atoms: _119  and  _120
REMARK   51  A    between atoms: _119  and  _122
REMARK   52  A    between atoms: _122  and  _123
REMARK   53  A    between atoms: _128  and  _130
REMARK   54  A    between atoms: _130  and  _131
REMARK   55  A    between atoms: _134  and  _136
REMARK   56  A    between atoms: _136  and  _137
REMARK   57  A    between atoms: _136  and  _139
REMARK   58  A    between atoms: _139  and  _140
REMARK   59  A    between atoms: _142  and  _144
REMARK   60  A    between atoms: _144  and  _145
REMARK   61  A    between atoms: _144  and  _147
REMARK   62  A    between atoms: _147  and  _148
REMARK   63  A    between atoms: _151  and  _153
REMARK   64  A    between atoms: _153  and  _154
REMARK   65  A    between atoms: _153  and  _156
REMARK   66  A    between atoms: _156  and  _157
REMARK   67  A    between atoms: _160  and  _162
REMARK   68  A    between atoms: _162  and  _163
REMARK   69  A    between atoms: _162  and  _165
REMARK   70  A    between atoms: _165  and  _166
REMARK   71  A    between atoms: _166  and  _167
REMARK   72  A    between atoms: _170  and  _172
REMARK   73  A    between atoms: _172  and  _173
REMARK   74  A    between atoms: _175  and  _177
REMARK   75  A    between atoms: _177  and  _178
REMARK   76  A    between atoms: _177  and  _180
REMARK   77  A    between atoms: _183  and  _185
REMARK   78  A    between atoms: _185  and  _186
REMARK   79  A    between atoms: _185  and  _188
REMARK   80  A    between atoms: _188  and  _189
REMARK   81  A    between atoms: _194  and  _195
REMARK   82  A    between atoms: _197  and  _199
REMARK   83  A    between atoms: _199  and  _200
REMARK   84  A    between atoms: _199  and  _202
REMARK   85  A    between atoms: _202  and  _203
REMARK   86  A    between atoms: _205  and  _207
REMARK   87  A    between atoms: _207  and  _208
REMARK   88  A    between atoms: _207  and  _210
REMARK   89  A    between atoms: _210  and  _211
REMARK   90  A    between atoms: _211  and  _212
REMARK   91  A    between atoms: _214  and  _216
REMARK   92  A    between atoms: _216  and  _217
REMARK   93  A    between atoms: _216  and  _219
REMARK   94  A    between atoms: _219  and  _220
REMARK   95  A    between atoms: _223  and  _225
REMARK   96  A    between atoms: _225  and  _226
REMARK   97  A    between atoms: _225  and  _228
REMARK   98  A    between atoms: _228  and  _229
REMARK   99  A    between atoms: _229  and  _230
REMARK  100  A    between atoms: _233  and  _235
REMARK  101  A    between atoms: _235  and  _236
REMARK  102  A    between atoms: _239  and  _241
REMARK  103  A    between atoms: _241  and  _242
REMARK  104  A    between atoms: _241  and  _244
REMARK  105  A    between atoms: _244  and  _245
REMARK  106  A    between atoms: _250  and  _252
REMARK  107  A    between atoms: _252  and  _253
REMARK  108  A    between atoms: _252  and  _255
REMARK  109  A    between atoms: _255  and  _256
REMARK  110  A    between atoms: _258  and  _260
REMARK  111  A    between atoms: _260  and  _261
REMARK  112  A    between atoms: _260  and  _263
REMARK  113  A    between atoms: _266  and  _268
REMARK  114  A    between atoms: _268  and  _269
REMARK  115  A    between atoms: _271  and  _273
REMARK  116  A    between atoms: _273  and  _274
REMARK  117  A    between atoms: _273  and  _276
REMARK  118  A    between atoms: _276  and  _277
REMARK  119  A    between atoms: _280  and  _282
REMARK  120  A    between atoms: _282  and  _283
REMARK  121  A    between atoms: _282  and  _285
REMARK  122  A    between atoms: _285  and  _286
REMARK  123  A    between atoms: _292  and  _294
REMARK  124  A    between atoms: _294  and  _295
REMARK  125  A    between atoms: _294  and  _297
REMARK  126  A    between atoms: _297  and  _298
REMARK  127  A    between atoms: _300  and  _302
REMARK  128  A    between atoms: _302  and  _303
REMARK  129  A    between atoms: _302  and  _305
REMARK  130  A    between atoms: _305  and  _306
REMARK  131  A    between atoms: _306  and  _307
REMARK  132  A    between atoms: _307  and  _308
REMARK  133  A    between atoms: _308  and  _309
REMARK  134  A    between atoms: _313  and  _315
REMARK  135  A    between atoms: _315  and  _316
REMARK  136  A    between atoms: _315  and  _318
REMARK  137  A    between atoms: _318  and  _319
REMARK  138  A    between atoms: _322  and  _324
REMARK  139  A    between atoms: _324  and  _325
REMARK  140  A    between atoms: _324  and  _327
REMARK  141  A    between atoms: _330  and  _332
REMARK  142  A    between atoms: _332  and  _333
REMARK  143  A    between atoms: _335  and  _337
REMARK  144  A    between atoms: _337  and  _338
REMARK  145  A    between atoms: _340  and  _342
REMARK  146  A    between atoms: _342  and  _343
REMARK  147  A    between atoms: _342  and  _345
REMARK  148  A    between atoms: _345  and  _346
REMARK  149  A    between atoms: _352  and  _354
REMARK  150  A    between atoms: _354  and  _355
REMARK  151  A    between atoms: _354  and  _357
REMARK  152  A    between atoms: _357  and  _358
REMARK  153  A    between atoms: _361  and  _363
REMARK  154  A    between atoms: _363  and  _364
REMARK  155  A    between atoms: _363  and  _366
REMARK  156  A    between atoms: _366  and  _367
REMARK  157  A    between atoms: _367  and  _368
REMARK  158  A    between atoms: _368  and  _369
REMARK  159  A    between atoms: _378  and  _380
REMARK  160  A    between atoms: _380  and  _381
REMARK  161  A    between atoms: _384  and  _386
REMARK  162  A    between atoms: _386  and  _387
REMARK  163  A    between atoms: _386  and  _389
REMARK  164  A    between atoms: _389  and  _390
REMARK  165  A    between atoms: _390  and  _391
REMARK  166  A    between atoms: _391  and  _392
REMARK  167  A    between atoms: _401  and  _403
REMARK  168  A    between atoms: _403  and  _404
REMARK  169  A    between atoms: _403  and  _406
REMARK  170  A    between atoms: _406  and  _407
REMARK  171  A    between atoms: _410  and  _412
REMARK  172  A    between atoms: _412  and  _413
REMARK  173  A    between atoms: _412  and  _415
REMARK  174  A    between atoms: _415  and  _416
REMARK  175  A    between atoms: _421  and  _423
REMARK  176  A    between atoms: _423  and  _424
REMARK  177  A    between atoms: _426  and  _428
REMARK  178  A    between atoms: _428  and  _429
REMARK  179  A    between atoms: _428  and  _431
REMARK  180  A    between atoms: _431  and  _432
REMARK  181  A    between atoms: _434  and  _436
REMARK  182  A    between atoms: _436  and  _437
REMARK  183  A    between atoms: _436  and  _439
REMARK  184  A    between atoms: _439  and  _440
REMARK  185  A    between atoms: _440  and  _441
REMARK  186  A    between atoms: _441  and  _442
REMARK  187  A    between atoms: _451  and  _453
REMARK  188  A    between atoms: _453  and  _454
REMARK  189  A    between atoms: _453  and  _456
REMARK  190  A    between atoms: _456  and  _457
REMARK  191  A    between atoms: _457  and  _458
REMARK  192  A    between atoms: _460  and  _462
REMARK  193  A    between atoms: _462  and  _463
REMARK  194  A    between atoms: _462  and  _465
REMARK  195  A    between atoms: _465  and  _466
REMARK  196  A    between atoms: _469  and  _471
REMARK  197  A    between atoms: _471  and  _472
REMARK  198  A    between atoms: _471  and  _474
REMARK  199  A    between atoms: _474  and  _475
REMARK  200  A    between atoms: _480  and  _482
REMARK  201  A    between atoms: _482  and  _483
REMARK  202  A    between atoms: _485  and  _487
REMARK  203  A    between atoms: _487  and  _488
REMARK  204  A    between atoms: _487  and  _490
REMARK  205  A    between atoms: _490  and  _491
REMARK  206  A    between atoms: _493  and  _495
REMARK  207  A    between atoms: _495  and  _496
REMARK  208  A    between atoms: _495  and  _498
REMARK  209  A    between atoms: _498  and  _499
REMARK  210  A    between atoms: _499  and  _500
REMARK  211  A    between atoms: _502  and  _504
REMARK  212  A    between atoms: _504  and  _505
REMARK  213  A    between atoms: _504  and  _507
REMARK  214  A    between atoms: _507  and  _508
REMARK  215  A    between atoms: _508  and  _509
REMARK  216  A    between atoms: _509  and  _510
REMARK  217  A    between atoms: _520  and  _521
REMARK  218  A    between atoms: _526  and  _528
REMARK  219  A    between atoms: _528  and  _529
REMARK  220  A    between atoms: _528  and  _531
REMARK  221  A    between atoms: _531  and  _532
REMARK  222  A    between atoms: _537  and  _538
REMARK  223  A    between atoms: _540  and  _542
REMARK  224  A    between atoms: _542  and  _543
REMARK  225  A    between atoms: _542  and  _545
REMARK  226  A    between atoms: _545  and  _546
REMARK  227  A    between atoms: _549  and  _551
REMARK  228  A    between atoms: _551  and  _552
REMARK  229  A    between atoms: _551  and  _554
REMARK  230  A    between atoms: _554  and  _555
REMARK  231  A    between atoms: _561  and  _563
REMARK  232  A    between atoms: _563  and  _564
REMARK  233  A    between atoms: _563  and  _566
REMARK  234  A    between atoms: _566  and  _567
REMARK  235  A    between atoms: _570  and  _572
REMARK  236  A    between atoms: _572  and  _573
REMARK  237  A    between atoms: _576  and  _578
REMARK  238  A    between atoms: _578  and  _579
REMARK  239  A    between atoms: _578  and  _581
REMARK  240  A    between atoms: _581  and  _582
REMARK                            x       y       z     vdW  Elec       q    Type
REMARK                         _______ _______ _______ _____ _____    ______ ____
ROOT
ATOM      1  NE  ARG A   1       1.868  13.929  39.246  0.00  0.00    -0.265 N 
ATOM      2  HE  ARG A   1       2.500  13.666  40.029  0.00  0.00    +0.259 HD
ATOM      3  CZ  ARG A   1       2.411  14.071  38.039  0.00  0.00    +0.342 C 
ATOM      4  NH2 ARG A   1       3.719  13.880  37.894  0.00  0.00    -0.292 N 
ATOM      5 HH21 ARG A   1       4.301  13.624  38.717  0.00  0.00    +0.255 HD
ATOM      6 HH22 ARG A   1       4.160  13.987  36.958  0.00  0.00    +0.255 HD
ATOM      7  NH1 ARG A   1       1.666  14.395  36.977  0.00  0.00    -0.292 N 
ATOM      8 HH11 ARG A   1       0.642  14.541  37.085  0.00  0.00    +0.255 HD
ATOM      9 HH12 ARG A   1       2.111  14.501  36.043  0.00  0.00    +0.255 HD
ENDROOT
BRANCH   1  10
ATOM     10  CD  ARG A   1       0.454  14.114  39.553  0.00  0.00    +0.174 C 
BRANCH  10  11
ATOM     11  CG  ARG A   1       0.176  13.894  41.035  0.00  0.00    +0.045 C 
BRANCH  11  12
ATOM     12  CB  ARG A   1       0.221  12.412  41.356  0.00  0.00    +0.029 C 
BRANCH  12  13
ATOM     13  CA  ARG A   1       0.226  12.073  42.849  0.00  0.00    +0.133 C 
BRANCH  13  14
ATOM     14  N   ARG A   1       1.431  12.602  43.501  0.00  0.00    -0.239 NA
ATOM     15  H   ARG A   1       2.240  12.893  42.915  0.00  0.00    +0.142 HD
ENDBRANCH  13  14
BRANCH  13  16
ATOM     16  C   ARG A   1       0.141  10.549  43.003  0.00  0.00    +0.224 C 
ATOM     17  O   ARG A   1       1.101   9.843  42.678  0.00  0.00    -0.287 OA
ENDBRANCH  13  16
ENDBRANCH  12  13
ENDBRANCH  11  12
ENDBRANCH  10  11
ENDBRANCH   1  10
TORSDOF 6
REMARK  Name = ../refined-set-2016/2w8j/2w8j_pocket.pdb
REMARK  240 active torsions:
REMARK  status: ('A' for Active; 'I' for Inactive)
REMARK    1  A    between atoms: _1  and  _3
REMARK    2  A    between atoms: _3  and  _4
REMARK    3  A    between atoms: _3  and  _6
REMARK    4  A    between atoms: _6  and  _7
REMARK    5  A    between atoms: _10  and  _12
REMARK    6  A    between atoms: _12  and  _13
REMARK    7  A    between atoms: _12  and  _15
REMARK    8  A    between atoms: _15  and  _16
REMARK    9  A    between atoms: _21  and  _22
REMARK   10  A    between atoms: _24  and  _26
REMARK   11  A    between atoms: _26  and  _27
REMARK   12  A    between atoms: _26  and  _29
REMARK   13  A    between atoms: _29  and  _30
REMARK   14  A    between atoms: _35  and  _36
REMARK   15  A    between atoms: _38  and  _40
REMARK   16  A    between atoms: _40  and  _41
REMARK   17  A    between atoms: _40  and  _43
REMARK   18  A    between atoms: _43  and  _44
REMARK   19  A    between atoms: _46  and  _48
REMARK   20  A    between atoms: _48  and  _49
REMARK   21  A    between atoms: _48  and  _51
REMARK   22  A    between atoms: _51  and  _52
REMARK   23  A    between atoms: _55  and  _57
REMARK   24  A    between atoms: _57  and  _58
REMARK   25  A    between atoms: _60  and  _62
REMARK   26  A    between atoms: _62  and  _63
REMARK   27  A    between atoms: _62  and  _65
REMARK   28  A    between atoms: _65  and  _66
REMARK   29  A    between atoms: _71  and  _72
REMARK   30  A    between atoms: _74  and  _76
REMARK   31  A    between atoms: _76  and  _77
REMARK   32  A    between atoms: _76  and  _79
REMARK   33  A    between atoms: _79  and  _80
REMARK   34  A    between atoms: _80  and  _81
REMARK   35  A    between atoms: _83  and  _85
REMARK   36  A    between atoms: _85  and  _86
REMARK   37  A    between atoms: _89  and  _91
REMARK   38  A    between atoms: _91  and  _92
REMARK   39  A    between atoms: _91  and  _94
REMARK   40  A    between atoms: _94  and  _95
REMARK   41  A    between atoms: _100  and  _102
REMARK   42  A    between atoms: _102  and  _103
REMARK   43  A    between atoms: _102  and  _105
REMARK   44  A    between atoms: _105  and  _106
REMARK   45  A    between atoms: _109  and  _111
REMARK   46  A    between atoms: _111  and  _112
REMARK   47  A    between atoms: _111  and  _114
REMARK   48  A    between atoms: _114  and  _115
REMARK   49  A    between atoms: _117  and  _119
REMARK   50  A    between atoms: _119  and  _120
REMARK   51  A    between atoms: _119  and  _122
REMARK   52  A    between atoms: _122  and  _123
REMARK   53  A    between atoms: _128  and  _130
REMARK   54  A    between atoms: _130  and  _131
REMARK   55  A    between atoms: _134  and  _136
REMARK   56  A    between atoms: _136  and  _137
REMARK   57  A    between atoms: _136  and  _139
REMARK   58  A    between atoms: _139  and  _140
REMARK   59  A    between atoms: _142  and  _144
REMARK   60  A    between atoms: _144  and  _145
REMARK   61  A    between atoms: _144  and  _147
REMARK   62  A    between atoms: _147  and  _148
REMARK   63  A    between atoms: _151  and  _153
REMARK   64  A    between atoms: _153  and  _154
REMARK   65  A    between atoms: _153  and  _156
REMARK   66  A    between atoms: _156  and  _157
REMARK   67  A    between atoms: _160  and  _162
REMARK   68  A    between atoms: _162  and  _163
REMARK   69  A    between atoms: _162  and  _165
REMARK   70  A    between atoms: _165  and  _166
REMARK   71  A    between atoms: _166  and  _167
REMARK   72  A    between atoms: _170  and  _172
REMARK   73  A    between atoms: _172  and  _173
REMARK   74  A    between atoms: _175  and  _177
REMARK   75  A    between atoms: _177  and  _178
REMARK   76  A    between atoms: _177  and  _180
REMARK   77  A    between atoms: _183  and  _185
REMARK   78  A    between atoms: _185  and  _186
REMARK   79  A    between atoms: _185  and  _188
REMARK   80  A    between atoms: _188  and  _189
REMARK   81  A    between atoms: _194  and  _195
REMARK   82  A    between atoms: _197  and  _199
REMARK   83  A    between atoms: _199  and  _200
REMARK   84  A    between atoms: _199  and  _202
REMARK   85  A    between atoms: _202  and  _203
REMARK   86  A    between atoms: _205  and  _207
REMARK   87  A    between atoms: _207  and  _208
REMARK   88  A    between atoms: _207  and  _210
REMARK   89  A    between atoms: _210  and  _211
REMARK   90  A    between atoms: _211  and  _212
REMARK   91  A    between atoms: _214  and  _216
REMARK   92  A    between atoms: _216  and  _217
REMARK   93  A    between atoms: _216  and  _219
REMARK   94  A    between atoms: _219  and  _220
REMARK   95  A    between atoms: _223  and  _225
REMARK   96  A    between atoms: _225  and  _226
REMARK   97  A    between atoms: _225  and  _228
REMARK   98  A    between atoms: _228  and  _229
REMARK   99  A    between atoms: _229  and  _230
REMARK  100  A    between atoms: _233  and  _235
REMARK  101  A    between atoms: _235  and  _236
REMARK  102  A    between atoms: _239  and  _241
REMARK  103  A    between atoms: _241  and  _242
REMARK  104  A    between atoms: _241  and  _244
REMARK  105  A    between atoms: _244  and  _245
REMARK  106  A    between atoms: _250  and  _252
REMARK  107  A    between atoms: _252  and  _253
REMARK  108  A    between atoms: _252  and  _255
REMARK  109  A    between atoms: _255  and  _256
REMARK  110  A    between atoms: _258  and  _260
REMARK  111  A    between atoms: _260  and  _261
REMARK  112  A    between atoms: _260  and  _263
REMARK  113  A    between atoms: _266  and  _268
REMARK  114  A    between atoms: _268  and  _269
REMARK  115  A    between atoms: _271  and  _273
REMARK  116  A    between atoms: _273  and  _274
REMARK  117  A    between atoms: _273  and  _276
REMARK  118  A    between atoms: _276  and  _277
REMARK  119  A    between atoms: _280  and  _282
REMARK  120  A    between atoms: _282  and  _283
REMARK  121  A    between atoms: _282  and  _285
REMARK  122  A    between atoms: _285  and  _286
REMARK  123  A    between atoms: _292  and  _294
REMARK  124  A    between atoms: _294  and  _295
REMARK  125  A    between atoms: _294  and  _297
REMARK  126  A    between atoms: _297  and  _298
REMARK  127  A    between atoms: _300  and  _302
REMARK  128  A    between atoms: _302  and  _303
REMARK  129  A    between atoms: _302  and  _305
REMARK  130  A    between atoms: _305  and  _306
REMARK  131  A    between atoms: _306  and  _307
REMARK  132  A    between atoms: _307  and  _308
REMARK  133  A    between atoms: _308  and  _309
REMARK  134  A    between atoms: _313  and  _315
REMARK  135  A    between atoms: _315  and  _316
REMARK  136  A    between atoms: _315  and  _318
REMARK  137  A    between atoms: _318  and  _319
REMARK  138  A    between atoms: _322  and  _324
REMARK  139  A    between atoms: _324  and  _325
REMARK  140  A    between atoms: _324  and  _327
REMARK  141  A    between atoms: _330  and  _332
REMARK  142  A    between atoms: _332  and  _333
REMARK  143  A    between atoms: _335  and  _337
REMARK  144  A    between atoms: _337  and  _338
REMARK  145  A    between atoms: _340  and  _342
REMARK  146  A    between atoms: _342  and  _343
REMARK  147  A    between atoms: _342  and  _345
REMARK  148  A    between atoms: _345  and  _346
REMARK  149  A    between atoms: _352  and  _354
REMARK  150  A    between atoms: _354  and  _355
REMARK  151  A    between atoms: _354  and  _357
REMARK  152  A    between atoms: _357  and  _358
REMARK  153  A    between atoms: _361  and  _363
REMARK  154  A    between atoms: _363  and  _364
REMARK  155  A    between atoms: _363  and  _366
REMARK  156  A    between atoms: _366  and  _367
REMARK  157  A    between atoms: _367  and  _368
REMARK  158  A    between atoms: _368  and  _369
REMARK  159  A    between atoms: _378  and  _380
REMARK  160  A    between atoms: _380  and  _381
REMARK  161  A    between atoms: _384  and  _386
REMARK  162  A    between atoms: _386  and  _387
REMARK  163  A    between atoms: _386  and  _389
REMARK  164  A    between atoms: _389  and  _390
REMARK  165  A    between atoms: _390  and  _391
REMARK  166  A    between atoms: _391  and  _392
REMARK  167  A    between atoms: _401  and  _403
REMARK  168  A    between atoms: _403  and  _404
REMARK  169  A    between atoms: _403  and  _406
REMARK  170  A    between atoms: _406  and  _407
REMARK  171  A    between atoms: _410  and  _412
REMARK  172  A    between atoms: _412  and  _413
REMARK  173  A    between atoms: _412  and  _415
REMARK  174  A    between atoms: _415  and  _416
REMARK  175  A    between atoms: _421  and  _423
REMARK  176  A    between atoms: _423  and  _424
REMARK  177  A    between atoms: _426  and  _428
REMARK  178  A    between atoms: _428  and  _429
REMARK  179  A    between atoms: _428  and  _431
REMARK  180  A    between atoms: _431  and  _432
REMARK  181  A    between atoms: _434  and  _436
REMARK  182  A    between atoms: _436  and  _437
REMARK  183  A    between atoms: _436  and  _439
REMARK  184  A    between atoms: _439  and  _440
REMARK  185  A    between atoms: _440  and  _441
REMARK  186  A    between atoms: _441  and  _442
REMARK  187  A    between atoms: _451  and  _453
REMARK  188  A    between atoms: _453  and  _454
REMARK  189  A    between atoms: _453  and  _456
REMARK  190  A    between atoms: _456  and  _457
REMARK  191  A    between atoms: _457  and  _458
REMARK  192  A    between atoms: _460  and  _462
REMARK  193  A    between atoms: _462  and  _463
REMARK  194  A    between atoms: _462  and  _465
REMARK  195  A    between atoms: _465  and  _466
REMARK  196  A    between atoms: _469  and  _471
REMARK  197  A    between atoms: _471  and  _472
REMARK  198  A    between atoms: _471  and  _474
REMARK  199  A    between atoms: _474  and  _475
REMARK  200  A    between atoms: _480  and  _482
REMARK  201  A    between atoms: _482  and  _483
REMARK  202  A    between atoms: _485  and  _487
REMARK  203  A    between atoms: _487  and  _488
REMARK  204  A    between atoms: _487  and  _490
REMARK  205  A    between atoms: _490  and  _491
REMARK  206  A    between atoms: _493  and  _495
REMARK  207  A    between atoms: _495  and  _496
REMARK  208  A    between atoms: _495  and  _498
REMARK  209  A    between atoms: _498  and  _499
REMARK  210  A    between atoms: _499  and  _500
REMARK  211  A    between atoms: _502  and  _504
REMARK  212  A    between atoms: _504  and  _505
REMARK  213  A    between atoms: _504  and  _507
REMARK  214  A    between atoms: _507  and  _508
REMARK  215  A    between atoms: _508  and  _509
REMARK  216  A    between atoms: _509  and  _510
REMARK  217  A    between atoms: _520  and  _521
REMARK  218  A    between atoms: _526  and  _528
REMARK  219  A    between atoms: _528  and  _529
REMARK  220  A    between atoms: _528  and  _531
REMARK  221  A    between atoms: _531  and  _532
REMARK  222  A    between atoms: _537  and  _538
REMARK  223  A    between atoms: _540  and  _542
REMARK  224  A    between atoms: _542  and  _543
REMARK  225  A    between atoms: _542  and  _545
REMARK  226  A    between atoms: _545  and  _546
REMARK  227  A    between atoms: _549  and  _551
REMARK  228  A    between atoms: _551  and  _552
REMARK  229  A    between atoms: _551  and  _554
REMARK  230  A    between atoms: _554  and  _555
REMARK  231  A    between atoms: _561  and  _563
REMARK  232  A    between atoms: _563  and  _564
REMARK  233  A    between atoms: _563  and  _566
REMARK  234  A    between atoms: _566  and  _567
REMARK  235  A    between atoms: _570  and  _572
REMARK  236  A    between atoms: _572  and  _573
REMARK  237  A    between atoms: _576  and  _578
REMARK  238  A    between atoms: _578  and  _579
REMARK  239  A    between atoms: _578  and  _581
REMARK  240  A    between atoms: _581  and  _582
REMARK                            x       y       z     vdW  Elec       q    Type
REMARK                         _______ _______ _______ _____ _____    ______ ____
ROOT
ATOM      1  CA  ALA A   1       2.776   8.448  39.893  0.00  0.00    +0.133 C 
ATOM      2  CB  ALA A   1       3.178   9.906  39.694  0.00  0.00    +0.027 C 
ENDROOT
BRANCH   1   3
ATOM      3  N   ALA A   1       1.334   8.367  40.144  0.00  0.00    -0.239 NA
ATOM      4  H   ALA A   1       0.906   9.048  40.804  0.00  0.00    +0.142 HD
ENDBRANCH   1   3
BRANCH   1   5
ATOM      5  C   ALA A   1       3.628   7.832  41.010  0.00  0.00    +0.224 C 
ATOM      6  O   ALA A   1       4.817   7.578  40.809  0.00  0.00    -0.287 OA
ENDBRANCH   1   5
TORSDOF 2
REMARK  Name = ../refined-set-2016/2w8j/2w8j_pocket.pdb
REMARK  240 active torsions:
REMARK  status: ('A' for Active; 'I' for Inactive)
REMARK    1  A    between atoms: _1  and  _3
REMARK    2  A    between atoms: _3  and  _4
REMARK    3  A    between atoms: _3  and  _6
REMARK    4  A    between atoms: _6  and  _7
REMARK    5  A    between atoms: _10  and  _12
REMARK    6  A    between atoms: _12  and  _13
REMARK    7  A    between atoms: _12  and  _15
REMARK    8  A    between atoms: _15  and  _16
REMARK    9  A    between atoms: _21  and  _22
REMARK   10  A    between atoms: _24  and  _26
REMARK   11  A    between atoms: _26  and  _27
REMARK   12  A    between atoms: _26  and  _29
REMARK   13  A    between atoms: _29  and  _30
REMARK   14  A    between atoms: _35  and  _36
REMARK   15  A    between atoms: _38  and  _40
REMARK   16  A    between atoms: _40  and  _41
REMARK   17  A    between atoms: _40  and  _43
REMARK   18  A    between atoms: _43  and  _44
REMARK   19  A    between atoms: _46  and  _48
REMARK   20  A    between atoms: _48  and  _49
REMARK   21  A    between atoms: _48  and  _51
REMARK   22  A    between atoms: _51  and  _52
REMARK   23  A    between atoms: _55  and  _57
REMARK   24  A    between atoms: _57  and  _58
REMARK   25  A    between atoms: _60  and  _62
REMARK   26  A    between atoms: _62  and  _63
REMARK   27  A    between atoms: _62  and  _65
REMARK   28  A    between atoms: _65  and  _66
REMARK   29  A    between atoms: _71  and  _72
REMARK   30  A    between atoms: _74  and  _76
REMARK   31  A    between atoms: _76  and  _77
REMARK   32  A    between atoms: _76  and  _79
REMARK   33  A    between atoms: _79  and  _80
REMARK   34  A    between atoms: _80  and  _81
REMARK   35  A    between atoms: _83  and  _85
REMARK   36  A    between atoms: _85  and  _86
REMARK   37  A    between atoms: _89  and  _91
REMARK   38  A    between atoms: _91  and  _92
REMARK   39  A    between atoms: _91  and  _94
REMARK   40  A    between atoms: _94  and  _95
REMARK   41  A    between atoms: _100  and  _102
REMARK   42  A    between atoms: _102  and  _103
REMARK   43  A    between atoms: _102  and  _105
REMARK   44  A    between atoms: _105  and  _106
REMARK   45  A    between atoms: _109  and  _111
REMARK   46  A    between atoms: _111  and  _112
REMARK   47  A    between atoms: _111  and  _114
REMARK   48  A    between atoms: _114  and  _115
REMARK   49  A    between atoms: _117  and  _119
REMARK   50  A    between atoms: _119  and  _120
REMARK   51  A    between atoms: _119  and  _122
REMARK   52  A    between atoms: _122  and  _123
REMARK   53  A    between atoms: _128  and  _130
REMARK   54  A    between atoms: _130  and  _131
REMARK   55  A    between atoms: _134  and  _136
REMARK   56  A    between atoms: _136  and  _137
REMARK   57  A    between atoms: _136  and  _139
REMARK   58  A    between atoms: _139  and  _140
REMARK   59  A    between atoms: _142  and  _144
REMARK   60  A    between atoms: _144  and  _145
REMARK   61  A    between atoms: _144  and  _147
REMARK   62  A    between atoms: _147  and  _148
REMARK   63  A    between atoms: _151  and  _153
REMARK   64  A    between atoms: _153  and  _154
REMARK   65  A    between atoms: _153  and  _156
REMARK   66  A    between atoms: _156  and  _157
REMARK   67  A    between atoms: _160  and  _162
REMARK   68  A    between atoms: _162  and  _163
REMARK   69  A    between atoms: _162  and  _165
REMARK   70  A    between atoms: _165  and  _166
REMARK   71  A    between atoms: _166  and  _167
REMARK   72  A    between atoms: _170  and  _172
REMARK   73  A    between atoms: _172  and  _173
REMARK   74  A    between atoms: _175  and  _177
REMARK   75  A    between atoms: _177  and  _178
REMARK   76  A    between atoms: _177  and  _180
REMARK   77  A    between atoms: _183  and  _185
REMARK   78  A    between atoms: _185  and  _186
REMARK   79  A    between atoms: _185  and  _188
REMARK   80  A    between atoms: _188  and  _189
REMARK   81  A    between atoms: _194  and  _195
REMARK   82  A    between atoms: _197  and  _199
REMARK   83  A    between atoms: _199  and  _200
REMARK   84  A    between atoms: _199  and  _202
REMARK   85  A    between atoms: _202  and  _203
REMARK   86  A    between atoms: _205  and  _207
REMARK   87  A    between atoms: _207  and  _208
REMARK   88  A    between atoms: _207  and  _210
REMARK   89  A    between atoms: _210  and  _211
REMARK   90  A    between atoms: _211  and  _212
REMARK   91  A    between atoms: _214  and  _216
REMARK   92  A    between atoms: _216  and  _217
REMARK   93  A    between atoms: _216  and  _219
REMARK   94  A    between atoms: _219  and  _220
REMARK   95  A    between atoms: _223  and  _225
REMARK   96  A    between atoms: _225  and  _226
REMARK   97  A    between atoms: _225  and  _228
REMARK   98  A    between atoms: _228  and  _229
REMARK   99  A    between atoms: _229  and  _230
REMARK  100  A    between atoms: _233  and  _235
REMARK  101  A    between atoms: _235  and  _236
REMARK  102  A    between atoms: _239  and  _241
REMARK  103  A    between atoms: _241  and  _242
REMARK  104  A    between atoms: _241  and  _244
REMARK  105  A    between atoms: _244  and  _245
REMARK  106  A    between atoms: _250  and  _252
REMARK  107  A    between atoms: _252  and  _253
REMARK  108  A    between atoms: _252  and  _255
REMARK  109  A    between atoms: _255  and  _256
REMARK  110  A    between atoms: _258  and  _260
REMARK  111  A    between atoms: _260  and  _261
REMARK  112  A    between atoms: _260  and  _263
REMARK  113  A    between atoms: _266  and  _268
REMARK  114  A    between atoms: _268  and  _269
REMARK  115  A    between atoms: _271  and  _273
REMARK  116  A    between atoms: _273  and  _274
REMARK  117  A    between atoms: _273  and  _276
REMARK  118  A    between atoms: _276  and  _277
REMARK  119  A    between atoms: _280  and  _282
REMARK  120  A    between atoms: _282  and  _283
REMARK  121  A    between atoms: _282  and  _285
REMARK  122  A    between atoms: _285  and  _286
REMARK  123  A    between atoms: _292  and  _294
REMARK  124  A    between atoms: _294  and  _295
REMARK  125  A    between atoms: _294  and  _297
REMARK  126  A    between atoms: _297  and  _298
REMARK  127  A    between atoms: _300  and  _302
REMARK  128  A    between atoms: _302  and  _303
REMARK  129  A    between atoms: _302  and  _305
REMARK  130  A    between atoms: _305  and  _306
REMARK  131  A    between atoms: _306  and  _307
REMARK  132  A    between atoms: _307  and  _308
REMARK  133  A    between atoms: _308  and  _309
REMARK  134  A    between atoms: _313  and  _315
REMARK  135  A    between atoms: _315  and  _316
REMARK  136  A    between atoms: _315  and  _318
REMARK  137  A    between atoms: _318  and  _319
REMARK  138  A    between atoms: _322  and  _324
REMARK  139  A    between atoms: _324  and  _325
REMARK  140  A    between atoms: _324  and  _327
REMARK  141  A    between atoms: _330  and  _332
REMARK  142  A    between atoms: _332  and  _333
REMARK  143  A    between atoms: _335  and  _337
REMARK  144  A    between atoms: _337  and  _338
REMARK  145  A    between atoms: _340  and  _342
REMARK  146  A    between atoms: _342  and  _343
REMARK  147  A    between atoms: _342  and  _345
REMARK  148  A    between atoms: _345  and  _346
REMARK  149  A    between atoms: _352  and  _354
REMARK  150  A    between atoms: _354  and  _355
REMARK  151  A    between atoms: _354  and  _357
REMARK  152  A    between atoms: _357  and  _358
REMARK  153  A    between atoms: _361  and  _363
REMARK  154  A    between atoms: _363  and  _364
REMARK  155  A    between atoms: _363  and  _366
REMARK  156  A    between atoms: _366  and  _367
REMARK  157  A    between atoms: _367  and  _368
REMARK  158  A    between atoms: _368  and  _369
REMARK  159  A    between atoms: _378  and  _380
REMARK  160  A    between atoms: _380  and  _381
REMARK  161  A    between atoms: _384  and  _386
REMARK  162  A    between atoms: _386  and  _387
REMARK  163  A    between atoms: _386  and  _389
REMARK  164  A    between atoms: _389  and  _390
REMARK  165  A    between atoms: _390  and  _391
REMARK  166  A    between atoms: _391  and  _392
REMARK  167  A    between atoms: _401  and  _403
REMARK  168  A    between atoms: _403  and  _404
REMARK  169  A    between atoms: _403  and  _406
REMARK  170  A    between atoms: _406  and  _407
REMARK  171  A    between atoms: _410  and  _412
REMARK  172  A    between atoms: _412  and  _413
REMARK  173  A    between atoms: _412  and  _415
REMARK  174  A    between atoms: _415  and  _416
REMARK  175  A    between atoms: _421  and  _423
REMARK  176  A    between atoms: _423  and  _424
REMARK  177  A    between atoms: _426  and  _428
REMARK  178  A    between atoms: _428  and  _429
REMARK  179  A    between atoms: _428  and  _431
REMARK  180  A    between atoms: _431  and  _432
REMARK  181  A    between atoms: _434  and  _436
REMARK  182  A    between atoms: _436  and  _437
REMARK  183  A    between atoms: _436  and  _439
REMARK  184  A    between atoms: _439  and  _440
REMARK  185  A    between atoms: _440  and  _441
REMARK  186  A    between atoms: _441  and  _442
REMARK  187  A    between atoms: _451  and  _453
REMARK  188  A    between atoms: _453  and  _454
REMARK  189  A    between atoms: _453  and  _456
REMARK  190  A    between atoms: _456  and  _457
REMARK  191  A    between atoms: _457  and  _458
REMARK  192  A    between atoms: _460  and  _462
REMARK  193  A    between atoms: _462  and  _463
REMARK  194  A    between atoms: _462  and  _465
REMARK  195  A    between atoms: _465  and  _466
REMARK  196  A    between atoms: _469  and  _471
REMARK  197  A    between atoms: _471  and  _472
REMARK  198  A    between atoms: _471  and  _474
REMARK  199  A    between atoms: _474  and  _475
REMARK  200  A    between atoms: _480  and  _482
REMARK  201  A    between atoms: _482  and  _483
REMARK  202  A    between atoms: _485  and  _487
REMARK  203  A    between atoms: _487  and  _488
REMARK  204  A    between atoms: _487  and  _490
REMARK  205  A    between atoms: _490  and  _491
REMARK  206  A    between atoms: _493  and  _495
REMARK  207  A    between atoms: _495  and  _496
REMARK  208  A    between atoms: _495  and  _498
REMARK  209  A    between atoms: _498  and  _499
REMARK  210  A    between atoms: _499  and  _500
REMARK  211  A    between atoms: _502  and  _504
REMARK  212  A    between atoms: _504  and  _505
REMARK  213  A    between atoms: _504  and  _507
REMARK  214  A    between atoms: _507  and  _508
REMARK  215  A    between atoms: _508  and  _509
REMARK  216  A    between atoms: _509  and  _510
REMARK  217  A    between atoms: _520  and  _521
REMARK  218  A    between atoms: _526  and  _528
REMARK  219  A    between atoms: _528  and  _529
REMARK  220  A    between atoms: _528  and  _531
REMARK  221  A    between atoms: _531  and  _532
REMARK  222  A    between atoms: _537  and  _538
REMARK  223  A    between atoms: _540  and  _542
REMARK  224  A    between atoms: _542  and  _543
REMARK  225  A    between atoms: _542  and  _545
REMARK  226  A    between atoms: _545  and  _546
REMARK  227  A    between atoms: _549  and  _551
REMARK  228  A    between atoms: _551  and  _552
REMARK  229  A    between atoms: _551  and  _554
REMARK  230  A    between atoms: _554  and  _555
REMARK  231  A    between atoms: _561  and  _563
REMARK  232  A    between atoms: _563  and  _564
REMARK  233  A    between atoms: _563  and  _566
REMARK  234  A    between atoms: _566  and  _567
REMARK  235  A    between atoms: _570  and  _572
REMARK  236  A    between atoms: _572  and  _573
REMARK  237  A    between atoms: _576  and  _578
REMARK  238  A    between atoms: _578  and  _579
REMARK  239  A    between atoms: _578  and  _581
REMARK  240  A    between atoms: _581  and  _582
REMARK                            x       y       z     vdW  Elec       q    Type
REMARK                         _______ _______ _______ _____ _____    ______ ____
ROOT
ATOM      1  NE  ARG A   1       8.347  15.057  42.685  0.00  0.00    -0.265 N 
ATOM      2  HE  ARG A   1       9.317  14.794  42.418  0.00  0.00    +0.259 HD
ATOM      3  CZ  ARG A   1       7.583  15.613  41.750  0.00  0.00    +0.342 C 
ATOM      4  NH2 ARG A   1       6.333  15.986  42.019  0.00  0.00    -0.292 N 
ATOM      5 HH21 ARG A   1       5.942  15.844  42.972  0.00  0.00    +0.255 HD
ATOM      6 HH22 ARG A   1       5.748  16.420  41.276  0.00  0.00    +0.255 HD
ATOM      7  NH1 ARG A   1       8.077  15.798  40.524  0.00  0.00    -0.292 N 
ATOM      8 HH11 ARG A   1       9.052  15.508  40.307  0.00  0.00    +0.255 HD
ATOM      9 HH12 ARG A   1       7.487  16.232  39.786  0.00  0.00    +0.255 HD
ENDROOT
BRANCH   1  10
ATOM     10  CD  ARG A   1       7.931  14.788  44.054  0.00  0.00    +0.174 C 
BRANCH  10  11
ATOM     11  CG  ARG A   1       8.514  15.775  45.008  0.00  0.00    +0.045 C 
BRANCH  11  12
ATOM     12  CB  ARG A   1       7.944  17.177  44.858  0.00  0.00    +0.029 C 
BRANCH  12  13
ATOM     13  CA  ARG A   1       8.112  17.948  46.163  0.00  0.00    +0.133 C 
BRANCH  13  14
ATOM     14  N   ARG A   1       7.049  17.601  47.091  0.00  0.00    -0.239 NA
ATOM     15  H   ARG A   1       6.062  17.830  46.857  0.00  0.00    +0.142 HD
ENDBRANCH  13  14
BRANCH  13  16
ATOM     16  C   ARG A   1       8.177  19.444  45.953  0.00  0.00    +0.224 C 
ATOM     17  O   ARG A   1       7.153  20.091  45.681  0.00  0.00    -0.287 OA
ENDBRANCH  13  16
ENDBRANCH  12  13
ENDBRANCH  11  12
ENDBRANCH  10  11
ENDBRANCH   1  10
TORSDOF 6
REMARK  Name = ../refined-set-2016/2w8j/2w8j_pocket.pdb
REMARK  240 active torsions:
REMARK  status: ('A' for Active; 'I' for Inactive)
REMARK    1  A    between atoms: _1  and  _3
REMARK    2  A    between atoms: _3  and  _4
REMARK    3  A    between atoms: _3  and  _6
REMARK    4  A    between atoms: _6  and  _7
REMARK    5  A    between atoms: _10  and  _12
REMARK    6  A    between atoms: _12  and  _13
REMARK    7  A    between atoms: _12  and  _15
REMARK    8  A    between atoms: _15  and  _16
REMARK    9  A    between atoms: _21  and  _22
REMARK   10  A    between atoms: _24  and  _26
REMARK   11  A    between atoms: _26  and  _27
REMARK   12  A    between atoms: _26  and  _29
REMARK   13  A    between atoms: _29  and  _30
REMARK   14  A    between atoms: _35  and  _36
REMARK   15  A    between atoms: _38  and  _40
REMARK   16  A    between atoms: _40  and  _41
REMARK   17  A    between atoms: _40  and  _43
REMARK   18  A    between atoms: _43  and  _44
REMARK   19  A    between atoms: _46  and  _48
REMARK   20  A    between atoms: _48  and  _49
REMARK   21  A    between atoms: _48  and  _51
REMARK   22  A    between atoms: _51  and  _52
REMARK   23  A    between atoms: _55  and  _57
REMARK   24  A    between atoms: _57  and  _58
REMARK   25  A    between atoms: _60  and  _62
REMARK   26  A    between atoms: _62  and  _63
REMARK   27  A    between atoms: _62  and  _65
REMARK   28  A    between atoms: _65  and  _66
REMARK   29  A    between atoms: _71  and  _72
REMARK   30  A    between atoms: _74  and  _76
REMARK   31  A    between atoms: _76  and  _77
REMARK   32  A    between atoms: _76  and  _79
REMARK   33  A    between atoms: _79  and  _80
REMARK   34  A    between atoms: _80  and  _81
REMARK   35  A    between atoms: _83  and  _85
REMARK   36  A    between atoms: _85  and  _86
REMARK   37  A    between atoms: _89  and  _91
REMARK   38  A    between atoms: _91  and  _92
REMARK   39  A    between atoms: _91  and  _94
REMARK   40  A    between atoms: _94  and  _95
REMARK   41  A    between atoms: _100  and  _102
REMARK   42  A    between atoms: _102  and  _103
REMARK   43  A    between atoms: _102  and  _105
REMARK   44  A    between atoms: _105  and  _106
REMARK   45  A    between atoms: _109  and  _111
REMARK   46  A    between atoms: _111  and  _112
REMARK   47  A    between atoms: _111  and  _114
REMARK   48  A    between atoms: _114  and  _115
REMARK   49  A    between atoms: _117  and  _119
REMARK   50  A    between atoms: _119  and  _120
REMARK   51  A    between atoms: _119  and  _122
REMARK   52  A    between atoms: _122  and  _123
REMARK   53  A    between atoms: _128  and  _130
REMARK   54  A    between atoms: _130  and  _131
REMARK   55  A    between atoms: _134  and  _136
REMARK   56  A    between atoms: _136  and  _137
REMARK   57  A    between atoms: _136  and  _139
REMARK   58  A    between atoms: _139  and  _140
REMARK   59  A    between atoms: _142  and  _144
REMARK   60  A    between atoms: _144  and  _145
REMARK   61  A    between atoms: _144  and  _147
REMARK   62  A    between atoms: _147  and  _148
REMARK   63  A    between atoms: _151  and  _153
REMARK   64  A    between atoms: _153  and  _154
REMARK   65  A    between atoms: _153  and  _156
REMARK   66  A    between atoms: _156  and  _157
REMARK   67  A    between atoms: _160  and  _162
REMARK   68  A    between atoms: _162  and  _163
REMARK   69  A    between atoms: _162  and  _165
REMARK   70  A    between atoms: _165  and  _166
REMARK   71  A    between atoms: _166  and  _167
REMARK   72  A    between atoms: _170  and  _172
REMARK   73  A    between atoms: _172  and  _173
REMARK   74  A    between atoms: _175  and  _177
REMARK   75  A    between atoms: _177  and  _178
REMARK   76  A    between atoms: _177  and  _180
REMARK   77  A    between atoms: _183  and  _185
REMARK   78  A    between atoms: _185  and  _186
REMARK   79  A    between atoms: _185  and  _188
REMARK   80  A    between atoms: _188  and  _189
REMARK   81  A    between atoms: _194  and  _195
REMARK   82  A    between atoms: _197  and  _199
REMARK   83  A    between atoms: _199  and  _200
REMARK   84  A    between atoms: _199  and  _202
REMARK   85  A    between atoms: _202  and  _203
REMARK   86  A    between atoms: _205  and  _207
REMARK   87  A    between atoms: _207  and  _208
REMARK   88  A    between atoms: _207  and  _210
REMARK   89  A    between atoms: _210  and  _211
REMARK   90  A    between atoms: _211  and  _212
REMARK   91  A    between atoms: _214  and  _216
REMARK   92  A    between atoms: _216  and  _217
REMARK   93  A    between atoms: _216  and  _219
REMARK   94  A    between atoms: _219  and  _220
REMARK   95  A    between atoms: _223  and  _225
REMARK   96  A    between atoms: _225  and  _226
REMARK   97  A    between atoms: _225  and  _228
REMARK   98  A    between atoms: _228  and  _229
REMARK   99  A    between atoms: _229  and  _230
REMARK  100  A    between atoms: _233  and  _235
REMARK  101  A    between atoms: _235  and  _236
REMARK  102  A    between atoms: _239  and  _241
REMARK  103  A    between atoms: _241  and  _242
REMARK  104  A    between atoms: _241  and  _244
REMARK  105  A    between atoms: _244  and  _245
REMARK  106  A    between atoms: _250  and  _252
REMARK  107  A    between atoms: _252  and  _253
REMARK  108  A    between atoms: _252  and  _255
REMARK  109  A    between atoms: _255  and  _256
REMARK  110  A    between atoms: _258  and  _260
REMARK  111  A    between atoms: _260  and  _261
REMARK  112  A    between atoms: _260  and  _263
REMARK  113  A    between atoms: _266  and  _268
REMARK  114  A    between atoms: _268  and  _269
REMARK  115  A    between atoms: _271  and  _273
REMARK  116  A    between atoms: _273  and  _274
REMARK  117  A    between atoms: _273  and  _276
REMARK  118  A    between atoms: _276  and  _277
REMARK  119  A    between atoms: _280  and  _282
REMARK  120  A    between atoms: _282  and  _283
REMARK  121  A    between atoms: _282  and  _285
REMARK  122  A    between atoms: _285  and  _286
REMARK  123  A    between atoms: _292  and  _294
REMARK  124  A    between atoms: _294  and  _295
REMARK  125  A    between atoms: _294  and  _297
REMARK  126  A    between atoms: _297  and  _298
REMARK  127  A    between atoms: _300  and  _302
REMARK  128  A    between atoms: _302  and  _303
REMARK  129  A    between atoms: _302  and  _305
REMARK  130  A    between atoms: _305  and  _306
REMARK  131  A    between atoms: _306  and  _307
REMARK  132  A    between atoms: _307  and  _308
REMARK  133  A    between atoms: _308  and  _309
REMARK  134  A    between atoms: _313  and  _315
REMARK  135  A    between atoms: _315  and  _316
REMARK  136  A    between atoms: _315  and  _318
REMARK  137  A    between atoms: _318  and  _319
REMARK  138  A    between atoms: _322  and  _324
REMARK  139  A    between atoms: _324  and  _325
REMARK  140  A    between atoms: _324  and  _327
REMARK  141  A    between atoms: _330  and  _332
REMARK  142  A    between atoms: _332  and  _333
REMARK  143  A    between atoms: _335  and  _337
REMARK  144  A    between atoms: _337  and  _338
REMARK  145  A    between atoms: _340  and  _342
REMARK  146  A    between atoms: _342  and  _343
REMARK  147  A    between atoms: _342  and  _345
REMARK  148  A    between atoms: _345  and  _346
REMARK  149  A    between atoms: _352  and  _354
REMARK  150  A    between atoms: _354  and  _355
REMARK  151  A    between atoms: _354  and  _357
REMARK  152  A    between atoms: _357  and  _358
REMARK  153  A    between atoms: _361  and  _363
REMARK  154  A    between atoms: _363  and  _364
REMARK  155  A    between atoms: _363  and  _366
REMARK  156  A    between atoms: _366  and  _367
REMARK  157  A    between atoms: _367  and  _368
REMARK  158  A    between atoms: _368  and  _369
REMARK  159  A    between atoms: _378  and  _380
REMARK  160  A    between atoms: _380  and  _381
REMARK  161  A    between atoms: _384  and  _386
REMARK  162  A    between atoms: _386  and  _387
REMARK  163  A    between atoms: _386  and  _389
REMARK  164  A    between atoms: _389  and  _390
REMARK  165  A    between atoms: _390  and  _391
REMARK  166  A    between atoms: _391  and  _392
REMARK  167  A    between atoms: _401  and  _403
REMARK  168  A    between atoms: _403  and  _404
REMARK  169  A    between atoms: _403  and  _406
REMARK  170  A    between atoms: _406  and  _407
REMARK  171  A    between atoms: _410  and  _412
REMARK  172  A    between atoms: _412  and  _413
REMARK  173  A    between atoms: _412  and  _415
REMARK  174  A    between atoms: _415  and  _416
REMARK  175  A    between atoms: _421  and  _423
REMARK  176  A    between atoms: _423  and  _424
REMARK  177  A    between atoms: _426  and  _428
REMARK  178  A    between atoms: _428  and  _429
REMARK  179  A    between atoms: _428  and  _431
REMARK  180  A    between atoms: _431  and  _432
REMARK  181  A    between atoms: _434  and  _436
REMARK  182  A    between atoms: _436  and  _437
REMARK  183  A    between atoms: _436  and  _439
REMARK  184  A    between atoms: _439  and  _440
REMARK  185  A    between atoms: _440  and  _441
REMARK  186  A    between atoms: _441  and  _442
REMARK  187  A    between atoms: _451  and  _453
REMARK  188  A    between atoms: _453  and  _454
REMARK  189  A    between atoms: _453  and  _456
REMARK  190  A    between atoms: _456  and  _457
REMARK  191  A    between atoms: _457  and  _458
REMARK  192  A    between atoms: _460  and  _462
REMARK  193  A    between atoms: _462  and  _463
REMARK  194  A    between atoms: _462  and  _465
REMARK  195  A    between atoms: _465  and  _466
REMARK  196  A    between atoms: _469  and  _471
REMARK  197  A    between atoms: _471  and  _472
REMARK  198  A    between atoms: _471  and  _474
REMARK  199  A    between atoms: _474  and  _475
REMARK  200  A    between atoms: _480  and  _482
REMARK  201  A    between atoms: _482  and  _483
REMARK  202  A    between atoms: _485  and  _487
REMARK  203  A    between atoms: _487  and  _488
REMARK  204  A    between atoms: _487  and  _490
REMARK  205  A    between atoms: _490  and  _491
REMARK  206  A    between atoms: _493  and  _495
REMARK  207  A    between atoms: _495  and  _496
REMARK  208  A    between atoms: _495  and  _498
REMARK  209  A    between atoms: _498  and  _499
REMARK  210  A    between atoms: _499  and  _500
REMARK  211  A    between atoms: _502  and  _504
REMARK  212  A    between atoms: _504  and  _505
REMARK  213  A    between atoms: _504  and  _507
REMARK  214  A    between atoms: _507  and  _508
REMARK  215  A    between atoms: _508  and  _509
REMARK  216  A    between atoms: _509  and  _510
REMARK  217  A    between atoms: _520  and  _521
REMARK  218  A    between atoms: _526  and  _528
REMARK  219  A    between atoms: _528  and  _529
REMARK  220  A    between atoms: _528  and  _531
REMARK  221  A    between atoms: _531  and  _532
REMARK  222  A    between atoms: _537  and  _538
REMARK  223  A    between atoms: _540  and  _542
REMARK  224  A    between atoms: _542  and  _543
REMARK  225  A    between atoms: _542  and  _545
REMARK  226  A    between atoms: _545  and  _546
REMARK  227  A    between atoms: _549  and  _551
REMARK  228  A    between atoms: _551  and  _552
REMARK  229  A    between atoms: _551  and  _554
REMARK  230  A    between atoms: _554  and  _555
REMARK  231  A    between atoms: _561  and  _563
REMARK  232  A    between atoms: _563  and  _564
REMARK  233  A    between atoms: _563  and  _566
REMARK  234  A    between atoms: _566  and  _567
REMARK  235  A    between atoms: _570  and  _572
REMARK  236  A    between atoms: _572  and  _573
REMARK  237  A    between atoms: _576  and  _578
REMARK  238  A    between atoms: _578  and  _579
REMARK  239  A    between atoms: _578  and  _581
REMARK  240  A    between atoms: _581  and  _582
REMARK                            x       y       z     vdW  Elec       q    Type
REMARK                         _______ _______ _______ _____ _____    ______ ____
ROOT
ATOM      1  CA  ARG A   5      -3.628  19.681  35.510  0.00  0.00    +0.149 C 
ENDROOT
BRANCH   1   4
ATOM      2  C   SER A   4      -1.181  19.504  35.606  0.00  0.00    +0.243 C 
ATOM      3  O   SER A   4      -1.094  20.201  36.621  0.00  0.00    -0.273 OA
ATOM      4  N   ARG A   5      -2.328  19.255  34.974  0.00  0.00    -0.297 N 
ATOM      5  H   ARG A   5      -2.302  18.741  34.070  0.00  0.00    +0.150 HD
BRANCH   2   6
ATOM      6  CA  SER A   4       0.054  18.802  35.048  0.00  0.00    +0.178 C 
BRANCH   6   8
ATOM      7  C   GLY A   3       1.374  20.809  34.623  0.00  0.00    +0.243 C 
ATOM      8  N   SER A   4       1.231  19.616  35.179  0.00  0.00    -0.295 N 
ATOM      9  H   SER A   4       2.020  19.245  35.746  0.00  0.00    +0.150 HD
ATOM     10  O   GLY A   3       0.545  21.344  33.900  0.00  0.00    -0.273 OA
BRANCH   7  11
ATOM     11  CA  GLY A   3       2.678  21.473  34.989  0.00  0.00    +0.176 C 
BRANCH  11  14
ATOM     12  C   ASN A   2       4.403  22.906  34.163  0.00  0.00    +0.241 C 
ATOM     13  O   ASN A   2       5.252  22.232  34.755  0.00  0.00    -0.273 OA
ATOM     14  N   GLY A   3       3.119  22.584  34.170  0.00  0.00    -0.295 N 
ATOM     15  H   GLY A   3       2.437  23.120  33.596  0.00  0.00    +0.150 HD
BRANCH  12  16
ATOM     16  CA  ASN A   2       4.817  24.119  33.330  0.00  0.00    +0.158 C 
BRANCH  16  19
ATOM     17  C   THR A   1       2.999  25.722  33.807  0.00  0.00    +0.241 C 
ATOM     18  O   THR A   1       3.146  25.636  35.032  0.00  0.00    -0.274 OA
ATOM     19  N   ASN A   2       3.734  25.034  32.940  0.00  0.00    -0.297 N 
ATOM     20  H   ASN A   2       3.532  25.149  31.926  0.00  0.00    +0.150 HD
BRANCH  17  21
ATOM     21  CA  THR A   1       1.916  26.634  33.215  0.00  0.00    +0.172 C 
BRANCH  21  22
ATOM     22  CB  THR A   1       0.615  25.829  33.279  0.00  0.00    +0.135 C 
ATOM     23  CG2 THR A   1      -0.535  26.568  32.609  0.00  0.00    +0.034 C 
BRANCH  22  24
ATOM     24  OG1 THR A   1       0.834  24.553  32.667  0.00  0.00    -0.383 OA
ATOM     25  HG1 THR A   1      -0.002  24.023  32.703  0.00  0.00    +0.210 HD
ENDBRANCH  22  24
ENDBRANCH  21  22
BRANCH  21  26
ATOM     26  N   THR A   1       2.196  27.078  31.843  0.00  0.00    -0.236 NA
ATOM     27  H   THR A   1       1.947  26.453  31.050  0.00  0.00    +0.142 HD
ENDBRANCH  21  26
ENDBRANCH  17  21
ENDBRANCH  16  19
BRANCH  16  28
ATOM     28  CB  ASN A   2       5.973  24.870  33.998  0.00  0.00    +0.114 C 
BRANCH  28  29
ATOM     29  CG  ASN A   2       6.829  25.630  32.987  0.00  0.00    +0.222 C 
ATOM     30  ND2 ASN A   2       8.048  25.939  33.370  0.00  0.00    -0.329 N 
ATOM     31 HD21 ASN A   2       8.374  25.684  34.324  0.00  0.00    +0.145 HD
ATOM     32 HD22 ASN A   2       8.687  26.439  32.719  0.00  0.00    +0.145 HD
ATOM     33  OD1 ASN A   2       6.391  25.910  31.864  0.00  0.00    -0.275 OA
ENDBRANCH  28  29
ENDBRANCH  16  28
ENDBRANCH  12  16
ENDBRANCH  11  14
ENDBRANCH   7  11
ENDBRANCH   6   8
BRANCH   6  34
ATOM     34  CB  SER A   4       0.276  17.530  35.859  0.00  0.00    +0.166 C 
BRANCH  34  35
ATOM     35  OG  SER A   4      -0.868  16.701  35.837  0.00  0.00    -0.380 OA
ATOM     36  H   SER A   4      -1.072  16.447  34.902  0.00  0.00    +0.211 HD
ENDBRANCH  34  35
ENDBRANCH   6  34
ENDBRANCH   2   6
ENDBRANCH   1   4
BRANCH   1  37
ATOM     37  C   ARG A   5      -3.885  19.147  36.922  0.00  0.00    +0.241 C 
ATOM     38  O   ARG A   5      -4.635  19.756  37.681  0.00  0.00    -0.273 OA
ATOM     39  N   MET A   6      -3.279  18.012  37.267  0.00  0.00    -0.297 N 
ATOM     40  H   MET A   6      -2.663  17.545  36.571  0.00  0.00    +0.150 HD
BRANCH  39  41
ATOM     41  CA  MET A   6      -3.443  17.396  38.581  0.00  0.00    +0.149 C 
BRANCH  41  42
ATOM     42  C   MET A   6      -2.577  18.058  39.657  0.00  0.00    +0.241 C 
ATOM     43  O   MET A   6      -2.741  17.778  40.847  0.00  0.00    -0.273 OA
ATOM     44  N   LEU A   7      -1.647  18.919  39.246  0.00  0.00    -0.297 N 
ATOM     45  H   LEU A   7      -1.548  19.107  38.228  0.00  0.00    +0.150 HD
BRANCH  44  46
ATOM     46  CA  LEU A   7      -0.765  19.604  40.179  0.00  0.00    +0.149 C 
BRANCH  46  47
ATOM     47  C   LEU A   7      -0.855  21.122  39.968  0.00  0.00    +0.241 C 
ATOM     48  O   LEU A   7      -1.851  21.728  40.340  0.00  0.00    -0.273 OA
ATOM     49  N   ASN A   8       0.161  21.727  39.361  0.00  0.00    -0.297 N 
ATOM     50  H   ASN A   8       0.899  21.140  38.923  0.00  0.00    +0.150 HD
BRANCH  49  51
ATOM     51  CA  ASN A   8       0.286  23.181  39.282  0.00  0.00    +0.158 C 
BRANCH  51  52
ATOM     52  C   ASN A   8      -0.229  23.804  37.977  0.00  0.00    +0.241 C 
ATOM     53  O   ASN A   8      -0.071  25.008  37.761  0.00  0.00    -0.273 OA
ATOM     54  N   GLY A   9      -0.848  23.004  37.114  0.00  0.00    -0.296 N 
ATOM     55  H   GLY A   9      -1.085  22.034  37.404  0.00  0.00    +0.150 HD
BRANCH  54  56
ATOM     56  CA  GLY A   9      -1.204  23.453  35.767  0.00  0.00    +0.163 C 
BRANCH  56  57
ATOM     57  C   GLY A   9      -2.611  23.971  35.511  0.00  0.00    +0.229 C 
ATOM     58  O   GLY A   9      -2.964  24.220  34.365  0.00  0.00    -0.286 OA
ENDBRANCH  56  57
ENDBRANCH  54  56
ENDBRANCH  51  52
BRANCH  51  59
ATOM     59  CB  ASN A   8       1.767  23.574  39.471  0.00  0.00    +0.114 C 
BRANCH  59  60
ATOM     60  CG  ASN A   8       2.679  22.901  38.456  0.00  0.00    +0.222 C 
ATOM     61  OD1 ASN A   8       2.756  21.678  38.403  0.00  0.00    -0.275 OA
ATOM     62  ND2 ASN A   8       3.340  23.704  37.614  0.00  0.00    -0.329 N 
ATOM     63 HD21 ASN A   8       3.244  24.736  37.697  0.00  0.00    +0.145 HD
ATOM     64 HD22 ASN A   8       3.950  23.296  36.877  0.00  0.00    +0.145 HD
ENDBRANCH  59  60
ENDBRANCH  51  59
ENDBRANCH  49  51
ENDBRANCH  46  47
BRANCH  46  65
ATOM     65  CB  LEU A   7       0.679  19.062  40.075  0.00  0.00    +0.029 C 
BRANCH  65  66
ATOM     66  CG  LEU A   7       0.849  17.607  40.523  0.00  0.00    +0.002 C 
ATOM     67  CD2 LEU A   7       0.585  17.455  42.008  0.00  0.00    +0.000 C 
ATOM     68  CD1 LEU A   7       2.243  17.066  40.172  0.00  0.00    +0.000 C 
ENDBRANCH  65  66
ENDBRANCH  46  65
ENDBRANCH  44  46
ENDBRANCH  41  42
BRANCH  41  69
ATOM     69  CB  MET A   6      -3.111  15.898  38.480  0.00  0.00    +0.041 C 
BRANCH  69  70
ATOM     70  CG  MET A   6      -3.323  15.075  39.724  0.00  0.00    +0.060 C 
BRANCH  70  71
ATOM     71  SD  MET A   6      -3.181  13.315  39.340  0.00  0.00    -0.139 S 
ATOM     72  CE  MET A   6      -4.774  13.026  38.566  0.00  0.00    +0.069 C 
ENDBRANCH  70  71
ENDBRANCH  69  70
ENDBRANCH  41  69
ENDBRANCH  39  41
ENDBRANCH   1  37
BRANCH   1  73
ATOM     73  CB  ARG A   5      -4.762  19.221  34.593  0.00  0.00    +0.033 C 
BRANCH  73  74
ATOM     74  CG  ARG A   5      -4.860  19.934  33.285  0.00  0.00    +0.045 C 
BRANCH  74  75
ATOM     75  CD  ARG A   5      -5.308  21.387  33.401  0.00  0.00    +0.174 C 
BRANCH  75  76
ATOM     76  NE  ARG A   5      -6.563  21.522  34.142  0.00  0.00    -0.265 N 
ATOM     77  HE  ARG A   5      -6.501  21.755  35.154  0.00  0.00    +0.259 HD
ATOM     78  CZ  ARG A   5      -7.775  21.370  33.621  0.00  0.00    +0.342 C 
ATOM     79  NH2 ARG A   5      -8.840  21.493  34.404  0.00  0.00    -0.292 N 
ATOM     80 HH21 ARG A   5      -8.720  21.706  35.415  0.00  0.00    +0.255 HD
ATOM     81 HH22 ARG A   5      -9.794  21.376  34.007  0.00  0.00    +0.255 HD
ATOM     82  NH1 ARG A   5      -7.930  21.097  32.336  0.00  0.00    -0.292 N 
ATOM     83 HH11 ARG A   5      -8.885  20.980  31.941  0.00  0.00    +0.255 HD
ATOM     84 HH12 ARG A   5      -7.097  20.999  31.721  0.00  0.00    +0.255 HD
ENDBRANCH  75  76
ENDBRANCH  74  75
ENDBRANCH  73  74
ENDBRANCH   1  73
TORSDOF 35
REMARK  Name = ../refined-set-2016/2w8j/2w8j_pocket.pdb
REMARK  240 active torsions:
REMARK  status: ('A' for Active; 'I' for Inactive)
REMARK    1  A    between atoms: _1  and  _3
REMARK    2  A    between atoms: _3  and  _4
REMARK    3  A    between atoms: _3  and  _6
REMARK    4  A    between atoms: _6  and  _7
REMARK    5  A    between atoms: _10  and  _12
REMARK    6  A    between atoms: _12  and  _13
REMARK    7  A    between atoms: _12  and  _15
REMARK    8  A    between atoms: _15  and  _16
REMARK    9  A    between atoms: _21  and  _22
REMARK   10  A    between atoms: _24  and  _26
REMARK   11  A    between atoms: _26  and  _27
REMARK   12  A    between atoms: _26  and  _29
REMARK   13  A    between atoms: _29  and  _30
REMARK   14  A    between atoms: _35  and  _36
REMARK   15  A    between atoms: _38  and  _40
REMARK   16  A    between atoms: _40  and  _41
REMARK   17  A    between atoms: _40  and  _43
REMARK   18  A    between atoms: _43  and  _44
REMARK   19  A    between atoms: _46  and  _48
REMARK   20  A    between atoms: _48  and  _49
REMARK   21  A    between atoms: _48  and  _51
REMARK   22  A    between atoms: _51  and  _52
REMARK   23  A    between atoms: _55  and  _57
REMARK   24  A    between atoms: _57  and  _58
REMARK   25  A    between atoms: _60  and  _62
REMARK   26  A    between atoms: _62  and  _63
REMARK   27  A    between atoms: _62  and  _65
REMARK   28  A    between atoms: _65  and  _66
REMARK   29  A    between atoms: _71  and  _72
REMARK   30  A    between atoms: _74  and  _76
REMARK   31  A    between atoms: _76  and  _77
REMARK   32  A    between atoms: _76  and  _79
REMARK   33  A    between atoms: _79  and  _80
REMARK   34  A    between atoms: _80  and  _81
REMARK   35  A    between atoms: _83  and  _85
REMARK   36  A    between atoms: _85  and  _86
REMARK   37  A    between atoms: _89  and  _91
REMARK   38  A    between atoms: _91  and  _92
REMARK   39  A    between atoms: _91  and  _94
REMARK   40  A    between atoms: _94  and  _95
REMARK   41  A    between atoms: _100  and  _102
REMARK   42  A    between atoms: _102  and  _103
REMARK   43  A    between atoms: _102  and  _105
REMARK   44  A    between atoms: _105  and  _106
REMARK   45  A    between atoms: _109  and  _111
REMARK   46  A    between atoms: _111  and  _112
REMARK   47  A    between atoms: _111  and  _114
REMARK   48  A    between atoms: _114  and  _115
REMARK   49  A    between atoms: _117  and  _119
REMARK   50  A    between atoms: _119  and  _120
REMARK   51  A    between atoms: _119  and  _122
REMARK   52  A    between atoms: _122  and  _123
REMARK   53  A    between atoms: _128  and  _130
REMARK   54  A    between atoms: _130  and  _131
REMARK   55  A    between atoms: _134  and  _136
REMARK   56  A    between atoms: _136  and  _137
REMARK   57  A    between atoms: _136  and  _139
REMARK   58  A    between atoms: _139  and  _140
REMARK   59  A    between atoms: _142  and  _144
REMARK   60  A    between atoms: _144  and  _145
REMARK   61  A    between atoms: _144  and  _147
REMARK   62  A    between atoms: _147  and  _148
REMARK   63  A    between atoms: _151  and  _153
REMARK   64  A    between atoms: _153  and  _154
REMARK   65  A    between atoms: _153  and  _156
REMARK   66  A    between atoms: _156  and  _157
REMARK   67  A    between atoms: _160  and  _162
REMARK   68  A    between atoms: _162  and  _163
REMARK   69  A    between atoms: _162  and  _165
REMARK   70  A    between atoms: _165  and  _166
REMARK   71  A    between atoms: _166  and  _167
REMARK   72  A    between atoms: _170  and  _172
REMARK   73  A    between atoms: _172  and  _173
REMARK   74  A    between atoms: _175  and  _177
REMARK   75  A    between atoms: _177  and  _178
REMARK   76  A    between atoms: _177  and  _180
REMARK   77  A    between atoms: _183  and  _185
REMARK   78  A    between atoms: _185  and  _186
REMARK   79  A    between atoms: _185  and  _188
REMARK   80  A    between atoms: _188  and  _189
REMARK   81  A    between atoms: _194  and  _195
REMARK   82  A    between atoms: _197  and  _199
REMARK   83  A    between atoms: _199  and  _200
REMARK   84  A    between atoms: _199  and  _202
REMARK   85  A    between atoms: _202  and  _203
REMARK   86  A    between atoms: _205  and  _207
REMARK   87  A    between atoms: _207  and  _208
REMARK   88  A    between atoms: _207  and  _210
REMARK   89  A    between atoms: _210  and  _211
REMARK   90  A    between atoms: _211  and  _212
REMARK   91  A    between atoms: _214  and  _216
REMARK   92  A    between atoms: _216  and  _217
REMARK   93  A    between atoms: _216  and  _219
REMARK   94  A    between atoms: _219  and  _220
REMARK   95  A    between atoms: _223  and  _225
REMARK   96  A    between atoms: _225  and  _226
REMARK   97  A    between atoms: _225  and  _228
REMARK   98  A    between atoms: _228  and  _229
REMARK   99  A    between atoms: _229  and  _230
REMARK  100  A    between atoms: _233  and  _235
REMARK  101  A    between atoms: _235  and  _236
REMARK  102  A    between atoms: _239  and  _241
REMARK  103  A    between atoms: _241  and  _242
REMARK  104  A    between atoms: _241  and  _244
REMARK  105  A    between atoms: _244  and  _245
REMARK  106  A    between atoms: _250  and  _252
REMARK  107  A    between atoms: _252  and  _253
REMARK  108  A    between atoms: _252  and  _255
REMARK  109  A    between atoms: _255  and  _256
REMARK  110  A    between atoms: _258  and  _260
REMARK  111  A    between atoms: _260  and  _261
REMARK  112  A    between atoms: _260  and  _263
REMARK  113  A    between atoms: _266  and  _268
REMARK  114  A    between atoms: _268  and  _269
REMARK  115  A    between atoms: _271  and  _273
REMARK  116  A    between atoms: _273  and  _274
REMARK  117  A    between atoms: _273  and  _276
REMARK  118  A    between atoms: _276  and  _277
REMARK  119  A    between atoms: _280  and  _282
REMARK  120  A    between atoms: _282  and  _283
REMARK  121  A    between atoms: _282  and  _285
REMARK  122  A    between atoms: _285  and  _286
REMARK  123  A    between atoms: _292  and  _294
REMARK  124  A    between atoms: _294  and  _295
REMARK  125  A    between atoms: _294  and  _297
REMARK  126  A    between atoms: _297  and  _298
REMARK  127  A    between atoms: _300  and  _302
REMARK  128  A    between atoms: _302  and  _303
REMARK  129  A    between atoms: _302  and  _305
REMARK  130  A    between atoms: _305  and  _306
REMARK  131  A    between atoms: _306  and  _307
REMARK  132  A    between atoms: _307  and  _308
REMARK  133  A    between atoms: _308  and  _309
REMARK  134  A    between atoms: _313  and  _315
REMARK  135  A    between atoms: _315  and  _316
REMARK  136  A    between atoms: _315  and  _318
REMARK  137  A    between atoms: _318  and  _319
REMARK  138  A    between atoms: _322  and  _324
REMARK  139  A    between atoms: _324  and  _325
REMARK  140  A    between atoms: _324  and  _327
REMARK  141  A    between atoms: _330  and  _332
REMARK  142  A    between atoms: _332  and  _333
REMARK  143  A    between atoms: _335  and  _337
REMARK  144  A    between atoms: _337  and  _338
REMARK  145  A    between atoms: _340  and  _342
REMARK  146  A    between atoms: _342  and  _343
REMARK  147  A    between atoms: _342  and  _345
REMARK  148  A    between atoms: _345  and  _346
REMARK  149  A    between atoms: _352  and  _354
REMARK  150  A    between atoms: _354  and  _355
REMARK  151  A    between atoms: _354  and  _357
REMARK  152  A    between atoms: _357  and  _358
REMARK  153  A    between atoms: _361  and  _363
REMARK  154  A    between atoms: _363  and  _364
REMARK  155  A    between atoms: _363  and  _366
REMARK  156  A    between atoms: _366  and  _367
REMARK  157  A    between atoms: _367  and  _368
REMARK  158  A    between atoms: _368  and  _369
REMARK  159  A    between atoms: _378  and  _380
REMARK  160  A    between atoms: _380  and  _381
REMARK  161  A    between atoms: _384  and  _386
REMARK  162  A    between atoms: _386  and  _387
REMARK  163  A    between atoms: _386  and  _389
REMARK  164  A    between atoms: _389  and  _390
REMARK  165  A    between atoms: _390  and  _391
REMARK  166  A    between atoms: _391  and  _392
REMARK  167  A    between atoms: _401  and  _403
REMARK  168  A    between atoms: _403  and  _404
REMARK  169  A    between atoms: _403  and  _406
REMARK  170  A    between atoms: _406  and  _407
REMARK  171  A    between atoms: _410  and  _412
REMARK  172  A    between atoms: _412  and  _413
REMARK  173  A    between atoms: _412  and  _415
REMARK  174  A    between atoms: _415  and  _416
REMARK  175  A    between atoms: _421  and  _423
REMARK  176  A    between atoms: _423  and  _424
REMARK  177  A    between atoms: _426  and  _428
REMARK  178  A    between atoms: _428  and  _429
REMARK  179  A    between atoms: _428  and  _431
REMARK  180  A    between atoms: _431  and  _432
REMARK  181  A    between atoms: _434  and  _436
REMARK  182  A    between atoms: _436  and  _437
REMARK  183  A    between atoms: _436  and  _439
REMARK  184  A    between atoms: _439  and  _440
REMARK  185  A    between atoms: _440  and  _441
REMARK  186  A    between atoms: _441  and  _442
REMARK  187  A    between atoms: _451  and  _453
REMARK  188  A    between atoms: _453  and  _454
REMARK  189  A    between atoms: _453  and  _456
REMARK  190  A    between atoms: _456  and  _457
REMARK  191  A    between atoms: _457  and  _458
REMARK  192  A    between atoms: _460  and  _462
REMARK  193  A    between atoms: _462  and  _463
REMARK  194  A    between atoms: _462  and  _465
REMARK  195  A    between atoms: _465  and  _466
REMARK  196  A    between atoms: _469  and  _471
REMARK  197  A    between atoms: _471  and  _472
REMARK  198  A    between atoms: _471  and  _474
REMARK  199  A    between atoms: _474  and  _475
REMARK  200  A    between atoms: _480  and  _482
REMARK  201  A    between atoms: _482  and  _483
REMARK  202  A    between atoms: _485  and  _487
REMARK  203  A    between atoms: _487  and  _488
REMARK  204  A    between atoms: _487  and  _490
REMARK  205  A    between atoms: _490  and  _491
REMARK  206  A    between atoms: _493  and  _495
REMARK  207  A    between atoms: _495  and  _496
REMARK  208  A    between atoms: _495  and  _498
REMARK  209  A    between atoms: _498  and  _499
REMARK  210  A    between atoms: _499  and  _500
REMARK  211  A    between atoms: _502  and  _504
REMARK  212  A    between atoms: _504  and  _505
REMARK  213  A    between atoms: _504  and  _507
REMARK  214  A    between atoms: _507  and  _508
REMARK  215  A    between atoms: _508  and  _509
REMARK  216  A    between atoms: _509  and  _510
REMARK  217  A    between atoms: _520  and  _521
REMARK  218  A    between atoms: _526  and  _528
REMARK  219  A    between atoms: _528  and  _529
REMARK  220  A    between atoms: _528  and  _531
REMARK  221  A    between atoms: _531  and  _532
REMARK  222  A    between atoms: _537  and  _538
REMARK  223  A    between atoms: _540  and  _542
REMARK  224  A    between atoms: _542  and  _543
REMARK  225  A    between atoms: _542  and  _545
REMARK  226  A    between atoms: _545  and  _546
REMARK  227  A    between atoms: _549  and  _551
REMARK  228  A    between atoms: _551  and  _552
REMARK  229  A    between atoms: _551  and  _554
REMARK  230  A    between atoms: _554  and  _555
REMARK  231  A    between atoms: _561  and  _563
REMARK  232  A    between atoms: _563  and  _564
REMARK  233  A    between atoms: _563  and  _566
REMARK  234  A    between atoms: _566  and  _567
REMARK  235  A    between atoms: _570  and  _572
REMARK  236  A    between atoms: _572  and  _573
REMARK  237  A    between atoms: _576  and  _578
REMARK  238  A    between atoms: _578  and  _579
REMARK  239  A    between atoms: _578  and  _581
REMARK  240  A    between atoms: _581  and  _582
REMARK                            x       y       z     vdW  Elec       q    Type
REMARK                         _______ _______ _______ _____ _____    ______ ____
ROOT
ATOM      1  CA  SER A   1      -3.202  19.186  25.573  0.00  0.00    +0.163 C 
ENDROOT
BRANCH   1   2
ATOM      2  N   SER A   1      -4.152  18.280  26.220  0.00  0.00    -0.237 NA
ATOM      3  H   SER A   1      -3.809  17.443  26.734  0.00  0.00    +0.142 HD
ENDBRANCH   1   2
BRANCH   1   4
ATOM      4  C   SER A   1      -3.127  19.086  24.029  0.00  0.00    +0.227 C 
ATOM      5  O   SER A   1      -2.592  19.987  23.398  0.00  0.00    -0.287 OA
ENDBRANCH   1   4
BRANCH   1   6
ATOM      6  CB  SER A   1      -1.827  19.071  26.218  0.00  0.00    +0.162 C 
BRANCH   6   7
ATOM      7  OG  SER A   1      -1.893  19.553  27.558  0.00  0.00    -0.380 OA
ATOM      8  H   SER A   1      -1.000  19.479  27.979  0.00  0.00    +0.211 HD
ENDBRANCH   6   7
ENDBRANCH   1   6
TORSDOF 4
REMARK  Name = ../refined-set-2016/2w8j/2w8j_pocket.pdb
REMARK  240 active torsions:
REMARK  status: ('A' for Active; 'I' for Inactive)
REMARK    1  A    between atoms: _1  and  _3
REMARK    2  A    between atoms: _3  and  _4
REMARK    3  A    between atoms: _3  and  _6
REMARK    4  A    between atoms: _6  and  _7
REMARK    5  A    between atoms: _10  and  _12
REMARK    6  A    between atoms: _12  and  _13
REMARK    7  A    between atoms: _12  and  _15
REMARK    8  A    between atoms: _15  and  _16
REMARK    9  A    between atoms: _21  and  _22
REMARK   10  A    between atoms: _24  and  _26
REMARK   11  A    between atoms: _26  and  _27
REMARK   12  A    between atoms: _26  and  _29
REMARK   13  A    between atoms: _29  and  _30
REMARK   14  A    between atoms: _35  and  _36
REMARK   15  A    between atoms: _38  and  _40
REMARK   16  A    between atoms: _40  and  _41
REMARK   17  A    between atoms: _40  and  _43
REMARK   18  A    between atoms: _43  and  _44
REMARK   19  A    between atoms: _46  and  _48
REMARK   20  A    between atoms: _48  and  _49
REMARK   21  A    between atoms: _48  and  _51
REMARK   22  A    between atoms: _51  and  _52
REMARK   23  A    between atoms: _55  and  _57
REMARK   24  A    between atoms: _57  and  _58
REMARK   25  A    between atoms: _60  and  _62
REMARK   26  A    between atoms: _62  and  _63
REMARK   27  A    between atoms: _62  and  _65
REMARK   28  A    between atoms: _65  and  _66
REMARK   29  A    between atoms: _71  and  _72
REMARK   30  A    between atoms: _74  and  _76
REMARK   31  A    between atoms: _76  and  _77
REMARK   32  A    between atoms: _76  and  _79
REMARK   33  A    between atoms: _79  and  _80
REMARK   34  A    between atoms: _80  and  _81
REMARK   35  A    between atoms: _83  and  _85
REMARK   36  A    between atoms: _85  and  _86
REMARK   37  A    between atoms: _89  and  _91
REMARK   38  A    between atoms: _91  and  _92
REMARK   39  A    between atoms: _91  and  _94
REMARK   40  A    between atoms: _94  and  _95
REMARK   41  A    between atoms: _100  and  _102
REMARK   42  A    between atoms: _102  and  _103
REMARK   43  A    between atoms: _102  and  _105
REMARK   44  A    between atoms: _105  and  _106
REMARK   45  A    between atoms: _109  and  _111
REMARK   46  A    between atoms: _111  and  _112
REMARK   47  A    between atoms: _111  and  _114
REMARK   48  A    between atoms: _114  and  _115
REMARK   49  A    between atoms: _117  and  _119
REMARK   50  A    between atoms: _119  and  _120
REMARK   51  A    between atoms: _119  and  _122
REMARK   52  A    between atoms: _122  and  _123
REMARK   53  A    between atoms: _128  and  _130
REMARK   54  A    between atoms: _130  and  _131
REMARK   55  A    between atoms: _134  and  _136
REMARK   56  A    between atoms: _136  and  _137
REMARK   57  A    between atoms: _136  and  _139
REMARK   58  A    between atoms: _139  and  _140
REMARK   59  A    between atoms: _142  and  _144
REMARK   60  A    between atoms: _144  and  _145
REMARK   61  A    between atoms: _144  and  _147
REMARK   62  A    between atoms: _147  and  _148
REMARK   63  A    between atoms: _151  and  _153
REMARK   64  A    between atoms: _153  and  _154
REMARK   65  A    between atoms: _153  and  _156
REMARK   66  A    between atoms: _156  and  _157
REMARK   67  A    between atoms: _160  and  _162
REMARK   68  A    between atoms: _162  and  _163
REMARK   69  A    between atoms: _162  and  _165
REMARK   70  A    between atoms: _165  and  _166
REMARK   71  A    between atoms: _166  and  _167
REMARK   72  A    between atoms: _170  and  _172
REMARK   73  A    between atoms: _172  and  _173
REMARK   74  A    between atoms: _175  and  _177
REMARK   75  A    between atoms: _177  and  _178
REMARK   76  A    between atoms: _177  and  _180
REMARK   77  A    between atoms: _183  and  _185
REMARK   78  A    between atoms: _185  and  _186
REMARK   79  A    between atoms: _185  and  _188
REMARK   80  A    between atoms: _188  and  _189
REMARK   81  A    between atoms: _194  and  _195
REMARK   82  A    between atoms: _197  and  _199
REMARK   83  A    between atoms: _199  and  _200
REMARK   84  A    between atoms: _199  and  _202
REMARK   85  A    between atoms: _202  and  _203
REMARK   86  A    between atoms: _205  and  _207
REMARK   87  A    between atoms: _207  and  _208
REMARK   88  A    between atoms: _207  and  _210
REMARK   89  A    between atoms: _210  and  _211
REMARK   90  A    between atoms: _211  and  _212
REMARK   91  A    between atoms: _214  and  _216
REMARK   92  A    between atoms: _216  and  _217
REMARK   93  A    between atoms: _216  and  _219
REMARK   94  A    between atoms: _219  and  _220
REMARK   95  A    between atoms: _223  and  _225
REMARK   96  A    between atoms: _225  and  _226
REMARK   97  A    between atoms: _225  and  _228
REMARK   98  A    between atoms: _228  and  _229
REMARK   99  A    between atoms: _229  and  _230
REMARK  100  A    between atoms: _233  and  _235
REMARK  101  A    between atoms: _235  and  _236
REMARK  102  A    between atoms: _239  and  _241
REMARK  103  A    between atoms: _241  and  _242
REMARK  104  A    between atoms: _241  and  _244
REMARK  105  A    between atoms: _244  and  _245
REMARK  106  A    between atoms: _250  and  _252
REMARK  107  A    between atoms: _252  and  _253
REMARK  108  A    between atoms: _252  and  _255
REMARK  109  A    between atoms: _255  and  _256
REMARK  110  A    between atoms: _258  and  _260
REMARK  111  A    between atoms: _260  and  _261
REMARK  112  A    between atoms: _260  and  _263
REMARK  113  A    between atoms: _266  and  _268
REMARK  114  A    between atoms: _268  and  _269
REMARK  115  A    between atoms: _271  and  _273
REMARK  116  A    between atoms: _273  and  _274
REMARK  117  A    between atoms: _273  and  _276
REMARK  118  A    between atoms: _276  and  _277
REMARK  119  A    between atoms: _280  and  _282
REMARK  120  A    between atoms: _282  and  _283
REMARK  121  A    between atoms: _282  and  _285
REMARK  122  A    between atoms: _285  and  _286
REMARK  123  A    between atoms: _292  and  _294
REMARK  124  A    between atoms: _294  and  _295
REMARK  125  A    between atoms: _294  and  _297
REMARK  126  A    between atoms: _297  and  _298
REMARK  127  A    between atoms: _300  and  _302
REMARK  128  A    between atoms: _302  and  _303
REMARK  129  A    between atoms: _302  and  _305
REMARK  130  A    between atoms: _305  and  _306
REMARK  131  A    between atoms: _306  and  _307
REMARK  132  A    between atoms: _307  and  _308
REMARK  133  A    between atoms: _308  and  _309
REMARK  134  A    between atoms: _313  and  _315
REMARK  135  A    between atoms: _315  and  _316
REMARK  136  A    between atoms: _315  and  _318
REMARK  137  A    between atoms: _318  and  _319
REMARK  138  A    between atoms: _322  and  _324
REMARK  139  A    between atoms: _324  and  _325
REMARK  140  A    between atoms: _324  and  _327
REMARK  141  A    between atoms: _330  and  _332
REMARK  142  A    between atoms: _332  and  _333
REMARK  143  A    between atoms: _335  and  _337
REMARK  144  A    between atoms: _337  and  _338
REMARK  145  A    between atoms: _340  and  _342
REMARK  146  A    between atoms: _342  and  _343
REMARK  147  A    between atoms: _342  and  _345
REMARK  148  A    between atoms: _345  and  _346
REMARK  149  A    between atoms: _352  and  _354
REMARK  150  A    between atoms: _354  and  _355
REMARK  151  A    between atoms: _354  and  _357
REMARK  152  A    between atoms: _357  and  _358
REMARK  153  A    between atoms: _361  and  _363
REMARK  154  A    between atoms: _363  and  _364
REMARK  155  A    between atoms: _363  and  _366
REMARK  156  A    between atoms: _366  and  _367
REMARK  157  A    between atoms: _367  and  _368
REMARK  158  A    between atoms: _368  and  _369
REMARK  159  A    between atoms: _378  and  _380
REMARK  160  A    between atoms: _380  and  _381
REMARK  161  A    between atoms: _384  and  _386
REMARK  162  A    between atoms: _386  and  _387
REMARK  163  A    between atoms: _386  and  _389
REMARK  164  A    between atoms: _389  and  _390
REMARK  165  A    between atoms: _390  and  _391
REMARK  166  A    between atoms: _391  and  _392
REMARK  167  A    between atoms: _401  and  _403
REMARK  168  A    between atoms: _403  and  _404
REMARK  169  A    between atoms: _403  and  _406
REMARK  170  A    between atoms: _406  and  _407
REMARK  171  A    between atoms: _410  and  _412
REMARK  172  A    between atoms: _412  and  _413
REMARK  173  A    between atoms: _412  and  _415
REMARK  174  A    between atoms: _415  and  _416
REMARK  175  A    between atoms: _421  and  _423
REMARK  176  A    between atoms: _423  and  _424
REMARK  177  A    between atoms: _426  and  _428
REMARK  178  A    between atoms: _428  and  _429
REMARK  179  A    between atoms: _428  and  _431
REMARK  180  A    between atoms: _431  and  _432
REMARK  181  A    between atoms: _434  and  _436
REMARK  182  A    between atoms: _436  and  _437
REMARK  183  A    between atoms: _436  and  _439
REMARK  184  A    between atoms: _439  and  _440
REMARK  185  A    between atoms: _440  and  _441
REMARK  186  A    between atoms: _441  and  _442
REMARK  187  A    between atoms: _451  and  _453
REMARK  188  A    between atoms: _453  and  _454
REMARK  189  A    between atoms: _453  and  _456
REMARK  190  A    between atoms: _456  and  _457
REMARK  191  A    between atoms: _457  and  _458
REMARK  192  A    between atoms: _460  and  _462
REMARK  193  A    between atoms: _462  and  _463
REMARK  194  A    between atoms: _462  and  _465
REMARK  195  A    between atoms: _465  and  _466
REMARK  196  A    between atoms: _469  and  _471
REMARK  197  A    between atoms: _471  and  _472
REMARK  198  A    between atoms: _471  and  _474
REMARK  199  A    between atoms: _474  and  _475
REMARK  200  A    between atoms: _480  and  _482
REMARK  201  A    between atoms: _482  and  _483
REMARK  202  A    between atoms: _485  and  _487
REMARK  203  A    between atoms: _487  and  _488
REMARK  204  A    between atoms: _487  and  _490
REMARK  205  A    between atoms: _490  and  _491
REMARK  206  A    between atoms: _493  and  _495
REMARK  207  A    between atoms: _495  and  _496
REMARK  208  A    between atoms: _495  and  _498
REMARK  209  A    between atoms: _498  and  _499
REMARK  210  A    between atoms: _499  and  _500
REMARK  211  A    between atoms: _502  and  _504
REMARK  212  A    between atoms: _504  and  _505
REMARK  213  A    between atoms: _504  and  _507
REMARK  214  A    between atoms: _507  and  _508
REMARK  215  A    between atoms: _508  and  _509
REMARK  216  A    between atoms: _509  and  _510
REMARK  217  A    between atoms: _520  and  _521
REMARK  218  A    between atoms: _526  and  _528
REMARK  219  A    between atoms: _528  and  _529
REMARK  220  A    between atoms: _528  and  _531
REMARK  221  A    between atoms: _531  and  _532
REMARK  222  A    between atoms: _537  and  _538
REMARK  223  A    between atoms: _540  and  _542
REMARK  224  A    between atoms: _542  and  _543
REMARK  225  A    between atoms: _542  and  _545
REMARK  226  A    between atoms: _545  and  _546
REMARK  227  A    between atoms: _549  and  _551
REMARK  228  A    between atoms: _551  and  _552
REMARK  229  A    between atoms: _551  and  _554
REMARK  230  A    between atoms: _554  and  _555
REMARK  231  A    between atoms: _561  and  _563
REMARK  232  A    between atoms: _563  and  _564
REMARK  233  A    between atoms: _563  and  _566
REMARK  234  A    between atoms: _566  and  _567
REMARK  235  A    between atoms: _570  and  _572
REMARK  236  A    between atoms: _572  and  _573
REMARK  237  A    between atoms: _576  and  _578
REMARK  238  A    between atoms: _578  and  _579
REMARK  239  A    between atoms: _578  and  _581
REMARK  240  A    between atoms: _581  and  _582
REMARK                            x       y       z     vdW  Elec       q    Type
REMARK                         _______ _______ _______ _____ _____    ______ ____
ROOT
ATOM      1  CA  MET A   1      -4.067  12.881  23.137  0.00  0.00    +0.134 C 
ENDROOT
BRANCH   1   2
ATOM      2  N   MET A   1      -4.141  13.421  21.767  0.00  0.00    -0.239 NA
ATOM      3  H   MET A   1      -3.848  14.404  21.596  0.00  0.00    +0.142 HD
ENDBRANCH   1   2
BRANCH   1   4
ATOM      4  C   MET A   1      -5.438  12.653  23.780  0.00  0.00    +0.224 C 
ATOM      5  O   MET A   1      -5.594  11.754  24.605  0.00  0.00    -0.287 OA
ENDBRANCH   1   4
BRANCH   1   6
ATOM      6  CB  MET A   1      -3.173  13.769  24.026  0.00  0.00    +0.037 C 
BRANCH   6   7
ATOM      7  CG  MET A   1      -1.704  13.614  23.689  0.00  0.00    +0.059 C 
BRANCH   7   8
ATOM      8  SD  MET A   1      -0.647  14.845  24.450  0.00  0.00    -0.139 S 
ATOM      9  CE  MET A   1      -0.537  14.212  26.116  0.00  0.00    +0.069 C 
ENDBRANCH   7   8
ENDBRANCH   6   7
ENDBRANCH   1   6
TORSDOF 5
REMARK  Name = ../refined-set-2016/2w8j/2w8j_pocket.pdb
REMARK  240 active torsions:
REMARK  status: ('A' for Active; 'I' for Inactive)
REMARK    1  A    between atoms: _1  and  _3
REMARK    2  A    between atoms: _3  and  _4
REMARK    3  A    between atoms: _3  and  _6
REMARK    4  A    between atoms: _6  and  _7
REMARK    5  A    between atoms: _10  and  _12
REMARK    6  A    between atoms: _12  and  _13
REMARK    7  A    between atoms: _12  and  _15
REMARK    8  A    between atoms: _15  and  _16
REMARK    9  A    between atoms: _21  and  _22
REMARK   10  A    between atoms: _24  and  _26
REMARK   11  A    between atoms: _26  and  _27
REMARK   12  A    between atoms: _26  and  _29
REMARK   13  A    between atoms: _29  and  _30
REMARK   14  A    between atoms: _35  and  _36
REMARK   15  A    between atoms: _38  and  _40
REMARK   16  A    between atoms: _40  and  _41
REMARK   17  A    between atoms: _40  and  _43
REMARK   18  A    between atoms: _43  and  _44
REMARK   19  A    between atoms: _46  and  _48
REMARK   20  A    between atoms: _48  and  _49
REMARK   21  A    between atoms: _48  and  _51
REMARK   22  A    between atoms: _51  and  _52
REMARK   23  A    between atoms: _55  and  _57
REMARK   24  A    between atoms: _57  and  _58
REMARK   25  A    between atoms: _60  and  _62
REMARK   26  A    between atoms: _62  and  _63
REMARK   27  A    between atoms: _62  and  _65
REMARK   28  A    between atoms: _65  and  _66
REMARK   29  A    between atoms: _71  and  _72
REMARK   30  A    between atoms: _74  and  _76
REMARK   31  A    between atoms: _76  and  _77
REMARK   32  A    between atoms: _76  and  _79
REMARK   33  A    between atoms: _79  and  _80
REMARK   34  A    between atoms: _80  and  _81
REMARK   35  A    between atoms: _83  and  _85
REMARK   36  A    between atoms: _85  and  _86
REMARK   37  A    between atoms: _89  and  _91
REMARK   38  A    between atoms: _91  and  _92
REMARK   39  A    between atoms: _91  and  _94
REMARK   40  A    between atoms: _94  and  _95
REMARK   41  A    between atoms: _100  and  _102
REMARK   42  A    between atoms: _102  and  _103
REMARK   43  A    between atoms: _102  and  _105
REMARK   44  A    between atoms: _105  and  _106
REMARK   45  A    between atoms: _109  and  _111
REMARK   46  A    between atoms: _111  and  _112
REMARK   47  A    between atoms: _111  and  _114
REMARK   48  A    between atoms: _114  and  _115
REMARK   49  A    between atoms: _117  and  _119
REMARK   50  A    between atoms: _119  and  _120
REMARK   51  A    between atoms: _119  and  _122
REMARK   52  A    between atoms: _122  and  _123
REMARK   53  A    between atoms: _128  and  _130
REMARK   54  A    between atoms: _130  and  _131
REMARK   55  A    between atoms: _134  and  _136
REMARK   56  A    between atoms: _136  and  _137
REMARK   57  A    between atoms: _136  and  _139
REMARK   58  A    between atoms: _139  and  _140
REMARK   59  A    between atoms: _142  and  _144
REMARK   60  A    between atoms: _144  and  _145
REMARK   61  A    between atoms: _144  and  _147
REMARK   62  A    between atoms: _147  and  _148
REMARK   63  A    between atoms: _151  and  _153
REMARK   64  A    between atoms: _153  and  _154
REMARK   65  A    between atoms: _153  and  _156
REMARK   66  A    between atoms: _156  and  _157
REMARK   67  A    between atoms: _160  and  _162
REMARK   68  A    between atoms: _162  and  _163
REMARK   69  A    between atoms: _162  and  _165
REMARK   70  A    between atoms: _165  and  _166
REMARK   71  A    between atoms: _166  and  _167
REMARK   72  A    between atoms: _170  and  _172
REMARK   73  A    between atoms: _172  and  _173
REMARK   74  A    between atoms: _175  and  _177
REMARK   75  A    between atoms: _177  and  _178
REMARK   76  A    between atoms: _177  and  _180
REMARK   77  A    between atoms: _183  and  _185
REMARK   78  A    between atoms: _185  and  _186
REMARK   79  A    between atoms: _185  and  _188
REMARK   80  A    between atoms: _188  and  _189
REMARK   81  A    between atoms: _194  and  _195
REMARK   82  A    between atoms: _197  and  _199
REMARK   83  A    between atoms: _199  and  _200
REMARK   84  A    between atoms: _199  and  _202
REMARK   85  A    between atoms: _202  and  _203
REMARK   86  A    between atoms: _205  and  _207
REMARK   87  A    between atoms: _207  and  _208
REMARK   88  A    between atoms: _207  and  _210
REMARK   89  A    between atoms: _210  and  _211
REMARK   90  A    between atoms: _211  and  _212
REMARK   91  A    between atoms: _214  and  _216
REMARK   92  A    between atoms: _216  and  _217
REMARK   93  A    between atoms: _216  and  _219
REMARK   94  A    between atoms: _219  and  _220
REMARK   95  A    between atoms: _223  and  _225
REMARK   96  A    between atoms: _225  and  _226
REMARK   97  A    between atoms: _225  and  _228
REMARK   98  A    between atoms: _228  and  _229
REMARK   99  A    between atoms: _229  and  _230
REMARK  100  A    between atoms: _233  and  _235
REMARK  101  A    between atoms: _235  and  _236
REMARK  102  A    between atoms: _239  and  _241
REMARK  103  A    between atoms: _241  and  _242
REMARK  104  A    between atoms: _241  and  _244
REMARK  105  A    between atoms: _244  and  _245
REMARK  106  A    between atoms: _250  and  _252
REMARK  107  A    between atoms: _252  and  _253
REMARK  108  A    between atoms: _252  and  _255
REMARK  109  A    between atoms: _255  and  _256
REMARK  110  A    between atoms: _258  and  _260
REMARK  111  A    between atoms: _260  and  _261
REMARK  112  A    between atoms: _260  and  _263
REMARK  113  A    between atoms: _266  and  _268
REMARK  114  A    between atoms: _268  and  _269
REMARK  115  A    between atoms: _271  and  _273
REMARK  116  A    between atoms: _273  and  _274
REMARK  117  A    between atoms: _273  and  _276
REMARK  118  A    between atoms: _276  and  _277
REMARK  119  A    between atoms: _280  and  _282
REMARK  120  A    between atoms: _282  and  _283
REMARK  121  A    between atoms: _282  and  _285
REMARK  122  A    between atoms: _285  and  _286
REMARK  123  A    between atoms: _292  and  _294
REMARK  124  A    between atoms: _294  and  _295
REMARK  125  A    between atoms: _294  and  _297
REMARK  126  A    between atoms: _297  and  _298
REMARK  127  A    between atoms: _300  and  _302
REMARK  128  A    between atoms: _302  and  _303
REMARK  129  A    between atoms: _302  and  _305
REMARK  130  A    between atoms: _305  and  _306
REMARK  131  A    between atoms: _306  and  _307
REMARK  132  A    between atoms: _307  and  _308
REMARK  133  A    between atoms: _308  and  _309
REMARK  134  A    between atoms: _313  and  _315
REMARK  135  A    between atoms: _315  and  _316
REMARK  136  A    between atoms: _315  and  _318
REMARK  137  A    between atoms: _318  and  _319
REMARK  138  A    between atoms: _322  and  _324
REMARK  139  A    between atoms: _324  and  _325
REMARK  140  A    between atoms: _324  and  _327
REMARK  141  A    between atoms: _330  and  _332
REMARK  142  A    between atoms: _332  and  _333
REMARK  143  A    between atoms: _335  and  _337
REMARK  144  A    between atoms: _337  and  _338
REMARK  145  A    between atoms: _340  and  _342
REMARK  146  A    between atoms: _342  and  _343
REMARK  147  A    between atoms: _342  and  _345
REMARK  148  A    between atoms: _345  and  _346
REMARK  149  A    between atoms: _352  and  _354
REMARK  150  A    between atoms: _354  and  _355
REMARK  151  A    between atoms: _354  and  _357
REMARK  152  A    between atoms: _357  and  _358
REMARK  153  A    between atoms: _361  and  _363
REMARK  154  A    between atoms: _363  and  _364
REMARK  155  A    between atoms: _363  and  _366
REMARK  156  A    between atoms: _366  and  _367
REMARK  157  A    between atoms: _367  and  _368
REMARK  158  A    between atoms: _368  and  _369
REMARK  159  A    between atoms: _378  and  _380
REMARK  160  A    between atoms: _380  and  _381
REMARK  161  A    between atoms: _384  and  _386
REMARK  162  A    between atoms: _386  and  _387
REMARK  163  A    between atoms: _386  and  _389
REMARK  164  A    between atoms: _389  and  _390
REMARK  165  A    between atoms: _390  and  _391
REMARK  166  A    between atoms: _391  and  _392
REMARK  167  A    between atoms: _401  and  _403
REMARK  168  A    between atoms: _403  and  _404
REMARK  169  A    between atoms: _403  and  _406
REMARK  170  A    between atoms: _406  and  _407
REMARK  171  A    between atoms: _410  and  _412
REMARK  172  A    between atoms: _412  and  _413
REMARK  173  A    between atoms: _412  and  _415
REMARK  174  A    between atoms: _415  and  _416
REMARK  175  A    between atoms: _421  and  _423
REMARK  176  A    between atoms: _423  and  _424
REMARK  177  A    between atoms: _426  and  _428
REMARK  178  A    between atoms: _428  and  _429
REMARK  179  A    between atoms: _428  and  _431
REMARK  180  A    between atoms: _431  and  _432
REMARK  181  A    between atoms: _434  and  _436
REMARK  182  A    between atoms: _436  and  _437
REMARK  183  A    between atoms: _436  and  _439
REMARK  184  A    between atoms: _439  and  _440
REMARK  185  A    between atoms: _440  and  _441
REMARK  186  A    between atoms: _441  and  _442
REMARK  187  A    between atoms: _451  and  _453
REMARK  188  A    between atoms: _453  and  _454
REMARK  189  A    between atoms: _453  and  _456
REMARK  190  A    between atoms: _456  and  _457
REMARK  191  A    between atoms: _457  and  _458
REMARK  192  A    between atoms: _460  and  _462
REMARK  193  A    between atoms: _462  and  _463
REMARK  194  A    between atoms: _462  and  _465
REMARK  195  A    between atoms: _465  and  _466
REMARK  196  A    between atoms: _469  and  _471
REMARK  197  A    between atoms: _471  and  _472
REMARK  198  A    between atoms: _471  and  _474
REMARK  199  A    between atoms: _474  and  _475
REMARK  200  A    between atoms: _480  and  _482
REMARK  201  A    between atoms: _482  and  _483
REMARK  202  A    between atoms: _485  and  _487
REMARK  203  A    between atoms: _487  and  _488
REMARK  204  A    between atoms: _487  and  _490
REMARK  205  A    between atoms: _490  and  _491
REMARK  206  A    between atoms: _493  and  _495
REMARK  207  A    between atoms: _495  and  _496
REMARK  208  A    between atoms: _495  and  _498
REMARK  209  A    between atoms: _498  and  _499
REMARK  210  A    between atoms: _499  and  _500
REMARK  211  A    between atoms: _502  and  _504
REMARK  212  A    between atoms: _504  and  _505
REMARK  213  A    between atoms: _504  and  _507
REMARK  214  A    between atoms: _507  and  _508
REMARK  215  A    between atoms: _508  and  _509
REMARK  216  A    between atoms: _509  and  _510
REMARK  217  A    between atoms: _520  and  _521
REMARK  218  A    between atoms: _526  and  _528
REMARK  219  A    between atoms: _528  and  _529
REMARK  220  A    between atoms: _528  and  _531
REMARK  221  A    between atoms: _531  and  _532
REMARK  222  A    between atoms: _537  and  _538
REMARK  223  A    between atoms: _540  and  _542
REMARK  224  A    between atoms: _542  and  _543
REMARK  225  A    between atoms: _542  and  _545
REMARK  226  A    between atoms: _545  and  _546
REMARK  227  A    between atoms: _549  and  _551
REMARK  228  A    between atoms: _551  and  _552
REMARK  229  A    between atoms: _551  and  _554
REMARK  230  A    between atoms: _554  and  _555
REMARK  231  A    between atoms: _561  and  _563
REMARK  232  A    between atoms: _563  and  _564
REMARK  233  A    between atoms: _563  and  _566
REMARK  234  A    between atoms: _566  and  _567
REMARK  235  A    between atoms: _570  and  _572
REMARK  236  A    between atoms: _572  and  _573
REMARK  237  A    between atoms: _576  and  _578
REMARK  238  A    between atoms: _578  and  _579
REMARK  239  A    between atoms: _578  and  _581
REMARK  240  A    between atoms: _581  and  _582
REMARK                            x       y       z     vdW  Elec       q    Type
REMARK                         _______ _______ _______ _____ _____    ______ ____
ROOT
ATOM      1  CA  ILE A   4      -2.196  13.393  33.977  0.00  0.00    +0.149 C 
ENDROOT
BRANCH   1   3
ATOM      2  C   TYR A   3      -3.390  14.175  31.988  0.00  0.00    +0.241 C 
ATOM      3  N   ILE A   4      -2.977  13.167  32.749  0.00  0.00    -0.297 N 
ATOM      4  H   ILE A   4      -3.211  12.193  32.470  0.00  0.00    +0.150 HD
ATOM      5  O   TYR A   3      -3.025  15.346  32.169  0.00  0.00    -0.273 OA
BRANCH   2   6
ATOM      6  CA  TYR A   3      -4.345  13.818  30.846  0.00  0.00    +0.153 C 
BRANCH   6   8
ATOM      7  C   PRO A   2      -2.941  12.657  29.200  0.00  0.00    +0.241 C 
ATOM      8  N   TYR A   3      -3.882  12.614  30.146  0.00  0.00    -0.297 N 
ATOM      9  H   TYR A   3      -4.301  11.696  30.396  0.00  0.00    +0.150 HD
ATOM     10  O   PRO A   2      -2.531  13.710  28.716  0.00  0.00    -0.273 OA
BRANCH   7  17
ATOM     11  C   ARG A   1      -2.097  10.084  30.733  0.00  0.00    +0.241 C 
ATOM     12  O   ARG A   1      -1.310  10.939  31.134  0.00  0.00    -0.273 OA
ATOM     13  N   PRO A   2      -2.672  10.163  29.515  0.00  0.00    -0.272 N 
ATOM     14  CD  PRO A   2      -3.263   9.088  28.706  0.00  0.00    +0.094 C 
ATOM     15  CG  PRO A   2      -2.991   9.534  27.314  0.00  0.00    +0.024 C 
ATOM     16  CB  PRO A   2      -2.989  10.966  27.331  0.00  0.00    +0.031 C 
ATOM     17  CA  PRO A   2      -2.371  11.331  28.691  0.00  0.00    +0.152 C 
BRANCH  11  18
ATOM     18  CA  ARG A   1      -2.471   8.901  31.652  0.00  0.00    +0.145 C 
BRANCH  18  19
ATOM     19  N   ARG A   1      -3.898   8.585  31.689  0.00  0.00    -0.238 NA
ATOM     20  H   ARG A   1      -4.223   7.644  31.387  0.00  0.00    +0.142 HD
ENDBRANCH  18  19
BRANCH  18  21
ATOM     21  CB  ARG A   1      -1.645   7.642  31.364  0.00  0.00    +0.030 C 
BRANCH  21  22
ATOM     22  CG  ARG A   1      -1.657   6.686  32.562  0.00  0.00    +0.045 C 
BRANCH  22  23
ATOM     23  CD  ARG A   1      -1.160   5.299  32.255  0.00  0.00    +0.174 C 
BRANCH  23  24
ATOM     24  NE  ARG A   1       0.264   5.233  31.905  0.00  0.00    -0.265 N 
ATOM     25  CZ  ARG A   1       1.271   5.107  32.773  0.00  0.00    +0.342 C 
ATOM     26  NH2 ARG A   1       1.059   5.071  34.089  0.00  0.00    -0.292 N 
ATOM     27 HH21 ARG A   1       1.862   4.972  34.743  0.00  0.00    +0.255 HD
ATOM     28 HH22 ARG A   1       0.091   5.142  34.462  0.00  0.00    +0.255 HD
ATOM     29  NH1 ARG A   1       2.521   5.029  32.316  0.00  0.00    -0.292 N 
ATOM     30 HH11 ARG A   1       3.313   4.931  32.983  0.00  0.00    +0.255 HD
ATOM     31 HH12 ARG A   1       2.704   5.066  31.293  0.00  0.00    +0.255 HD
ATOM     32  HE  ARG A   1       0.509   5.289  30.896  0.00  0.00    +0.259 HD
ENDBRANCH  23  24
ENDBRANCH  22  23
ENDBRANCH  21  22
ENDBRANCH  18  21
ENDBRANCH  11  18
ENDBRANCH   7  17
ENDBRANCH   6   8
BRANCH   6  33
ATOM     33  CB  TYR A   3      -5.750  13.597  31.395  0.00  0.00    +0.055 C 
BRANCH  33  34
ATOM     34  CG  TYR A   3      -6.280  14.766  32.175  0.00  0.00    -0.020 A 
ATOM     35  CD2 TYR A   3      -6.240  14.776  33.572  0.00  0.00    -0.001 A 
ATOM     36  CE2 TYR A   3      -6.711  15.844  34.289  0.00  0.00    +0.036 A 
ATOM     37  CZ  TYR A   3      -7.255  16.924  33.630  0.00  0.00    +0.134 A 
ATOM     38  CE1 TYR A   3      -7.317  16.946  32.258  0.00  0.00    +0.036 A 
ATOM     39  CD1 TYR A   3      -6.820  15.873  31.527  0.00  0.00    -0.001 A 
BRANCH  37  40
ATOM     40  OH  TYR A   3      -7.745  17.987  34.358  0.00  0.00    -0.506 OA
ATOM     41  HH  TYR A   3      -7.016  18.376  34.904  0.00  0.00    +0.292 HD
ENDBRANCH  37  40
ENDBRANCH  33  34
ENDBRANCH   6  33
ENDBRANCH   2   6
ENDBRANCH   1   3
BRANCH   1  42
ATOM     42  C   ILE A   4      -0.738  13.768  33.700  0.00  0.00    +0.241 C 
ATOM     43  O   ILE A   4      -0.199  14.694  34.318  0.00  0.00    -0.273 OA
ATOM     44  N   PHE A   5      -0.101  13.050  32.782  0.00  0.00    -0.297 N 
ATOM     45  H   PHE A   5      -0.654  12.448  32.139  0.00  0.00    +0.150 HD
BRANCH  44  46
ATOM     46  CA  PHE A   5       1.370  13.082  32.648  0.00  0.00    +0.153 C 
BRANCH  46  47
ATOM     47  C   PHE A   5       1.893  13.998  31.538  0.00  0.00    +0.241 C 
ATOM     48  N   THR A   6       1.235  15.142  31.364  0.00  0.00    -0.295 N 
ATOM     49  H   THR A   6       0.378  15.318  31.927  0.00  0.00    +0.150 HD
ATOM     50  O   PHE A   5       2.875  13.679  30.866  0.00  0.00    -0.273 OA
BRANCH  48  51
ATOM     51  CA  THR A   6       1.671  16.158  30.413  0.00  0.00    +0.176 C 
BRANCH  51  52
ATOM     52  C   THR A   6       1.337  17.531  30.983  0.00  0.00    +0.243 C 
ATOM     53  O   THR A   6       0.386  17.675  31.759  0.00  0.00    -0.273 OA
ATOM     54  N   ALA A   7       2.121  18.534  30.614  0.00  0.00    -0.297 N 
ATOM     55  H   ALA A   7       2.960  18.342  30.031  0.00  0.00    +0.150 HD
BRANCH  54  56
ATOM     56  CA  ALA A   7       1.822  19.904  31.015  0.00  0.00    +0.149 C 
ATOM     57  CB  ALA A   7       2.947  20.843  30.614  0.00  0.00    +0.031 C 
BRANCH  56  58
ATOM     58  C   ALA A   7       0.501  20.375  30.410  0.00  0.00    +0.241 C 
ATOM     59  N   SER A   8      -0.269  21.132  31.178  0.00  0.00    -0.296 N 
ATOM     60  H   SER A   8      -0.011  21.278  32.175  0.00  0.00    +0.150 HD
ATOM     61  O   ALA A   7       0.191  20.078  29.265  0.00  0.00    -0.273 OA
BRANCH  59  62
ATOM     62  CA  SER A   8      -1.465  21.760  30.651  0.00  0.00    +0.166 C 
BRANCH  62  63
ATOM     63  C   SER A   8      -1.099  22.847  29.625  0.00  0.00    +0.229 C 
ATOM     64  O   SER A   8       0.051  23.312  29.541  0.00  0.00    -0.286 OA
ENDBRANCH  62  63
BRANCH  62  65
ATOM     65  CB  SER A   8      -2.280  22.351  31.787  0.00  0.00    +0.165 C 
BRANCH  65  66
ATOM     66  OG  SER A   8      -1.606  23.477  32.310  0.00  0.00    -0.380 OA
ATOM     67  H   SER A   8      -2.137  23.863  33.051  0.00  0.00    +0.211 HD
ENDBRANCH  65  66
ENDBRANCH  62  65
ENDBRANCH  59  62
ENDBRANCH  56  58
ENDBRANCH  54  56
ENDBRANCH  51  52
BRANCH  51  68
ATOM     68  CB  THR A   6       1.011  15.943  29.017  0.00  0.00    +0.137 C 
ATOM     69  CG2 THR A   6      -0.437  16.383  29.011  0.00  0.00    +0.034 C 
BRANCH  68  70
ATOM     70  OG1 THR A   6       1.730  16.656  28.000  0.00  0.00    -0.382 OA
ATOM     71  HG1 THR A   6       2.664  16.329  27.967  0.00  0.00    +0.210 HD
ENDBRANCH  68  70
ENDBRANCH  51  68
ENDBRANCH  48  51
ENDBRANCH  46  47
BRANCH  46  72
ATOM     72  CB  PHE A   5       1.904  11.645  32.533  0.00  0.00    +0.055 C 
BRANCH  72  73
ATOM     73  CG  PHE A   5       1.694  10.832  33.791  0.00  0.00    -0.020 A 
ATOM     74  CD2 PHE A   5       2.436  11.106  34.920  0.00  0.00    -0.004 A 
ATOM     75  CE2 PHE A   5       2.258  10.373  36.097  0.00  0.00    -0.000 A 
ATOM     76  CZ  PHE A   5       1.324   9.347  36.142  0.00  0.00    -0.000 A 
ATOM     77  CE1 PHE A   5       0.570   9.063  35.011  0.00  0.00    -0.000 A 
ATOM     78  CD1 PHE A   5       0.756   9.804  33.842  0.00  0.00    -0.004 A 
ENDBRANCH  72  73
ENDBRANCH  46  72
ENDBRANCH  44  46
ENDBRANCH   1  42
BRANCH   1  79
ATOM     79  CB  ILE A   4      -2.230  12.141  34.862  0.00  0.00    +0.027 C 
ATOM     80  CG2 ILE A   4      -1.289  12.291  36.068  0.00  0.00    +0.002 C 
BRANCH  79  81
ATOM     81  CG1 ILE A   4      -3.640  11.872  35.386  0.00  0.00    +0.002 C 
ATOM     82  CD1 ILE A   4      -3.818  10.455  35.874  0.00  0.00    +0.000 C 
ENDBRANCH  79  81
ENDBRANCH   1  79
TORSDOF 30
REMARK  Name = ../refined-set-2016/2w8j/2w8j_pocket.pdb
REMARK  240 active torsions:
REMARK  status: ('A' for Active; 'I' for Inactive)
REMARK    1  A    between atoms: _1  and  _3
REMARK    2  A    between atoms: _3  and  _4
REMARK    3  A    between atoms: _3  and  _6
REMARK    4  A    between atoms: _6  and  _7
REMARK    5  A    between atoms: _10  and  _12
REMARK    6  A    between atoms: _12  and  _13
REMARK    7  A    between atoms: _12  and  _15
REMARK    8  A    between atoms: _15  and  _16
REMARK    9  A    between atoms: _21  and  _22
REMARK   10  A    between atoms: _24  and  _26
REMARK   11  A    between atoms: _26  and  _27
REMARK   12  A    between atoms: _26  and  _29
REMARK   13  A    between atoms: _29  and  _30
REMARK   14  A    between atoms: _35  and  _36
REMARK   15  A    between atoms: _38  and  _40
REMARK   16  A    between atoms: _40  and  _41
REMARK   17  A    between atoms: _40  and  _43
REMARK   18  A    between atoms: _43  and  _44
REMARK   19  A    between atoms: _46  and  _48
REMARK   20  A    between atoms: _48  and  _49
REMARK   21  A    between atoms: _48  and  _51
REMARK   22  A    between atoms: _51  and  _52
REMARK   23  A    between atoms: _55  and  _57
REMARK   24  A    between atoms: _57  and  _58
REMARK   25  A    between atoms: _60  and  _62
REMARK   26  A    between atoms: _62  and  _63
REMARK   27  A    between atoms: _62  and  _65
REMARK   28  A    between atoms: _65  and  _66
REMARK   29  A    between atoms: _71  and  _72
REMARK   30  A    between atoms: _74  and  _76
REMARK   31  A    between atoms: _76  and  _77
REMARK   32  A    between atoms: _76  and  _79
REMARK   33  A    between atoms: _79  and  _80
REMARK   34  A    between atoms: _80  and  _81
REMARK   35  A    between atoms: _83  and  _85
REMARK   36  A    between atoms: _85  and  _86
REMARK   37  A    between atoms: _89  and  _91
REMARK   38  A    between atoms: _91  and  _92
REMARK   39  A    between atoms: _91  and  _94
REMARK   40  A    between atoms: _94  and  _95
REMARK   41  A    between atoms: _100  and  _102
REMARK   42  A    between atoms: _102  and  _103
REMARK   43  A    between atoms: _102  and  _105
REMARK   44  A    between atoms: _105  and  _106
REMARK   45  A    between atoms: _109  and  _111
REMARK   46  A    between atoms: _111  and  _112
REMARK   47  A    between atoms: _111  and  _114
REMARK   48  A    between atoms: _114  and  _115
REMARK   49  A    between atoms: _117  and  _119
REMARK   50  A    between atoms: _119  and  _120
REMARK   51  A    between atoms: _119  and  _122
REMARK   52  A    between atoms: _122  and  _123
REMARK   53  A    between atoms: _128  and  _130
REMARK   54  A    between atoms: _130  and  _131
REMARK   55  A    between atoms: _134  and  _136
REMARK   56  A    between atoms: _136  and  _137
REMARK   57  A    between atoms: _136  and  _139
REMARK   58  A    between atoms: _139  and  _140
REMARK   59  A    between atoms: _142  and  _144
REMARK   60  A    between atoms: _144  and  _145
REMARK   61  A    between atoms: _144  and  _147
REMARK   62  A    between atoms: _147  and  _148
REMARK   63  A    between atoms: _151  and  _153
REMARK   64  A    between atoms: _153  and  _154
REMARK   65  A    between atoms: _153  and  _156
REMARK   66  A    between atoms: _156  and  _157
REMARK   67  A    between atoms: _160  and  _162
REMARK   68  A    between atoms: _162  and  _163
REMARK   69  A    between atoms: _162  and  _165
REMARK   70  A    between atoms: _165  and  _166
REMARK   71  A    between atoms: _166  and  _167
REMARK   72  A    between atoms: _170  and  _172
REMARK   73  A    between atoms: _172  and  _173
REMARK   74  A    between atoms: _175  and  _177
REMARK   75  A    between atoms: _177  and  _178
REMARK   76  A    between atoms: _177  and  _180
REMARK   77  A    between atoms: _183  and  _185
REMARK   78  A    between atoms: _185  and  _186
REMARK   79  A    between atoms: _185  and  _188
REMARK   80  A    between atoms: _188  and  _189
REMARK   81  A    between atoms: _194  and  _195
REMARK   82  A    between atoms: _197  and  _199
REMARK   83  A    between atoms: _199  and  _200
REMARK   84  A    between atoms: _199  and  _202
REMARK   85  A    between atoms: _202  and  _203
REMARK   86  A    between atoms: _205  and  _207
REMARK   87  A    between atoms: _207  and  _208
REMARK   88  A    between atoms: _207  and  _210
REMARK   89  A    between atoms: _210  and  _211
REMARK   90  A    between atoms: _211  and  _212
REMARK   91  A    between atoms: _214  and  _216
REMARK   92  A    between atoms: _216  and  _217
REMARK   93  A    between atoms: _216  and  _219
REMARK   94  A    between atoms: _219  and  _220
REMARK   95  A    between atoms: _223  and  _225
REMARK   96  A    between atoms: _225  and  _226
REMARK   97  A    between atoms: _225  and  _228
REMARK   98  A    between atoms: _228  and  _229
REMARK   99  A    between atoms: _229  and  _230
REMARK  100  A    between atoms: _233  and  _235
REMARK  101  A    between atoms: _235  and  _236
REMARK  102  A    between atoms: _239  and  _241
REMARK  103  A    between atoms: _241  and  _242
REMARK  104  A    between atoms: _241  and  _244
REMARK  105  A    between atoms: _244  and  _245
REMARK  106  A    between atoms: _250  and  _252
REMARK  107  A    between atoms: _252  and  _253
REMARK  108  A    between atoms: _252  and  _255
REMARK  109  A    between atoms: _255  and  _256
REMARK  110  A    between atoms: _258  and  _260
REMARK  111  A    between atoms: _260  and  _261
REMARK  112  A    between atoms: _260  and  _263
REMARK  113  A    between atoms: _266  and  _268
REMARK  114  A    between atoms: _268  and  _269
REMARK  115  A    between atoms: _271  and  _273
REMARK  116  A    between atoms: _273  and  _274
REMARK  117  A    between atoms: _273  and  _276
REMARK  118  A    between atoms: _276  and  _277
REMARK  119  A    between atoms: _280  and  _282
REMARK  120  A    between atoms: _282  and  _283
REMARK  121  A    between atoms: _282  and  _285
REMARK  122  A    between atoms: _285  and  _286
REMARK  123  A    between atoms: _292  and  _294
REMARK  124  A    between atoms: _294  and  _295
REMARK  125  A    between atoms: _294  and  _297
REMARK  126  A    between atoms: _297  and  _298
REMARK  127  A    between atoms: _300  and  _302
REMARK  128  A    between atoms: _302  and  _303
REMARK  129  A    between atoms: _302  and  _305
REMARK  130  A    between atoms: _305  and  _306
REMARK  131  A    between atoms: _306  and  _307
REMARK  132  A    between atoms: _307  and  _308
REMARK  133  A    between atoms: _308  and  _309
REMARK  134  A    between atoms: _313  and  _315
REMARK  135  A    between atoms: _315  and  _316
REMARK  136  A    between atoms: _315  and  _318
REMARK  137  A    between atoms: _318  and  _319
REMARK  138  A    between atoms: _322  and  _324
REMARK  139  A    between atoms: _324  and  _325
REMARK  140  A    between atoms: _324  and  _327
REMARK  141  A    between atoms: _330  and  _332
REMARK  142  A    between atoms: _332  and  _333
REMARK  143  A    between atoms: _335  and  _337
REMARK  144  A    between atoms: _337  and  _338
REMARK  145  A    between atoms: _340  and  _342
REMARK  146  A    between atoms: _342  and  _343
REMARK  147  A    between atoms: _342  and  _345
REMARK  148  A    between atoms: _345  and  _346
REMARK  149  A    between atoms: _352  and  _354
REMARK  150  A    between atoms: _354  and  _355
REMARK  151  A    between atoms: _354  and  _357
REMARK  152  A    between atoms: _357  and  _358
REMARK  153  A    between atoms: _361  and  _363
REMARK  154  A    between atoms: _363  and  _364
REMARK  155  A    between atoms: _363  and  _366
REMARK  156  A    between atoms: _366  and  _367
REMARK  157  A    between atoms: _367  and  _368
REMARK  158  A    between atoms: _368  and  _369
REMARK  159  A    between atoms: _378  and  _380
REMARK  160  A    between atoms: _380  and  _381
REMARK  161  A    between atoms: _384  and  _386
REMARK  162  A    between atoms: _386  and  _387
REMARK  163  A    between atoms: _386  and  _389
REMARK  164  A    between atoms: _389  and  _390
REMARK  165  A    between atoms: _390  and  _391
REMARK  166  A    between atoms: _391  and  _392
REMARK  167  A    between atoms: _401  and  _403
REMARK  168  A    between atoms: _403  and  _404
REMARK  169  A    between atoms: _403  and  _406
REMARK  170  A    between atoms: _406  and  _407
REMARK  171  A    between atoms: _410  and  _412
REMARK  172  A    between atoms: _412  and  _413
REMARK  173  A    between atoms: _412  and  _415
REMARK  174  A    between atoms: _415  and  _416
REMARK  175  A    between atoms: _421  and  _423
REMARK  176  A    between atoms: _423  and  _424
REMARK  177  A    between atoms: _426  and  _428
REMARK  178  A    between atoms: _428  and  _429
REMARK  179  A    between atoms: _428  and  _431
REMARK  180  A    between atoms: _431  and  _432
REMARK  181  A    between atoms: _434  and  _436
REMARK  182  A    between atoms: _436  and  _437
REMARK  183  A    between atoms: _436  and  _439
REMARK  184  A    between atoms: _439  and  _440
REMARK  185  A    between atoms: _440  and  _441
REMARK  186  A    between atoms: _441  and  _442
REMARK  187  A    between atoms: _451  and  _453
REMARK  188  A    between atoms: _453  and  _454
REMARK  189  A    between atoms: _453  and  _456
REMARK  190  A    between atoms: _456  and  _457
REMARK  191  A    between atoms: _457  and  _458
REMARK  192  A    between atoms: _460  and  _462
REMARK  193  A    between atoms: _462  and  _463
REMARK  194  A    between atoms: _462  and  _465
REMARK  195  A    between atoms: _465  and  _466
REMARK  196  A    between atoms: _469  and  _471
REMARK  197  A    between atoms: _471  and  _472
REMARK  198  A    between atoms: _471  and  _474
REMARK  199  A    between atoms: _474  and  _475
REMARK  200  A    between atoms: _480  and  _482
REMARK  201  A    between atoms: _482  and  _483
REMARK  202  A    between atoms: _485  and  _487
REMARK  203  A    between atoms: _487  and  _488
REMARK  204  A    between atoms: _487  and  _490
REMARK  205  A    between atoms: _490  and  _491
REMARK  206  A    between atoms: _493  and  _495
REMARK  207  A    between atoms: _495  and  _496
REMARK  208  A    between atoms: _495  and  _498
REMARK  209  A    between atoms: _498  and  _499
REMARK  210  A    between atoms: _499  and  _500
REMARK  211  A    between atoms: _502  and  _504
REMARK  212  A    between atoms: _504  and  _505
REMARK  213  A    between atoms: _504  and  _507
REMARK  214  A    between atoms: _507  and  _508
REMARK  215  A    between atoms: _508  and  _509
REMARK  216  A    between atoms: _509  and  _510
REMARK  217  A    between atoms: _520  and  _521
REMARK  218  A    between atoms: _526  and  _528
REMARK  219  A    between atoms: _528  and  _529
REMARK  220  A    between atoms: _528  and  _531
REMARK  221  A    between atoms: _531  and  _532
REMARK  222  A    between atoms: _537  and  _538
REMARK  223  A    between atoms: _540  and  _542
REMARK  224  A    between atoms: _542  and  _543
REMARK  225  A    between atoms: _542  and  _545
REMARK  226  A    between atoms: _545  and  _546
REMARK  227  A    between atoms: _549  and  _551
REMARK  228  A    between atoms: _551  and  _552
REMARK  229  A    between atoms: _551  and  _554
REMARK  230  A    between atoms: _554  and  _555
REMARK  231  A    between atoms: _561  and  _563
REMARK  232  A    between atoms: _563  and  _564
REMARK  233  A    between atoms: _563  and  _566
REMARK  234  A    between atoms: _566  and  _567
REMARK  235  A    between atoms: _570  and  _572
REMARK  236  A    between atoms: _572  and  _573
REMARK  237  A    between atoms: _576  and  _578
REMARK  238  A    between atoms: _578  and  _579
REMARK  239  A    between atoms: _578  and  _581
REMARK  240  A    between atoms: _581  and  _582
REMARK                            x       y       z     vdW  Elec       q    Type
REMARK                         _______ _______ _______ _____ _____    ______ ____
ROOT
ATOM      1  O   HOH     1       4.657   7.326  36.815  0.00  0.00    +0.000 OA
ENDROOT
TORSDOF 0
REMARK  Name = ../refined-set-2016/2w8j/2w8j_pocket.pdb
REMARK  240 active torsions:
REMARK  status: ('A' for Active; 'I' for Inactive)
REMARK    1  A    between atoms: _1  and  _3
REMARK    2  A    between atoms: _3  and  _4
REMARK    3  A    between atoms: _3  and  _6
REMARK    4  A    between atoms: _6  and  _7
REMARK    5  A    between atoms: _10  and  _12
REMARK    6  A    between atoms: _12  and  _13
REMARK    7  A    between atoms: _12  and  _15
REMARK    8  A    between atoms: _15  and  _16
REMARK    9  A    between atoms: _21  and  _22
REMARK   10  A    between atoms: _24  and  _26
REMARK   11  A    between atoms: _26  and  _27
REMARK   12  A    between atoms: _26  and  _29
REMARK   13  A    between atoms: _29  and  _30
REMARK   14  A    between atoms: _35  and  _36
REMARK   15  A    between atoms: _38  and  _40
REMARK   16  A    between atoms: _40  and  _41
REMARK   17  A    between atoms: _40  and  _43
REMARK   18  A    between atoms: _43  and  _44
REMARK   19  A    between atoms: _46  and  _48
REMARK   20  A    between atoms: _48  and  _49
REMARK   21  A    between atoms: _48  and  _51
REMARK   22  A    between atoms: _51  and  _52
REMARK   23  A    between atoms: _55  and  _57
REMARK   24  A    between atoms: _57  and  _58
REMARK   25  A    between atoms: _60  and  _62
REMARK   26  A    between atoms: _62  and  _63
REMARK   27  A    between atoms: _62  and  _65
REMARK   28  A    between atoms: _65  and  _66
REMARK   29  A    between atoms: _71  and  _72
REMARK   30  A    between atoms: _74  and  _76
REMARK   31  A    between atoms: _76  and  _77
REMARK   32  A    between atoms: _76  and  _79
REMARK   33  A    between atoms: _79  and  _80
REMARK   34  A    between atoms: _80  and  _81
REMARK   35  A    between atoms: _83  and  _85
REMARK   36  A    between atoms: _85  and  _86
REMARK   37  A    between atoms: _89  and  _91
REMARK   38  A    between atoms: _91  and  _92
REMARK   39  A    between atoms: _91  and  _94
REMARK   40  A    between atoms: _94  and  _95
REMARK   41  A    between atoms: _100  and  _102
REMARK   42  A    between atoms: _102  and  _103
REMARK   43  A    between atoms: _102  and  _105
REMARK   44  A    between atoms: _105  and  _106
REMARK   45  A    between atoms: _109  and  _111
REMARK   46  A    between atoms: _111  and  _112
REMARK   47  A    between atoms: _111  and  _114
REMARK   48  A    between atoms: _114  and  _115
REMARK   49  A    between atoms: _117  and  _119
REMARK   50  A    between atoms: _119  and  _120
REMARK   51  A    between atoms: _119  and  _122
REMARK   52  A    between atoms: _122  and  _123
REMARK   53  A    between atoms: _128  and  _130
REMARK   54  A    between atoms: _130  and  _131
REMARK   55  A    between atoms: _134  and  _136
REMARK   56  A    between atoms: _136  and  _137
REMARK   57  A    between atoms: _136  and  _139
REMARK   58  A    between atoms: _139  and  _140
REMARK   59  A    between atoms: _142  and  _144
REMARK   60  A    between atoms: _144  and  _145
REMARK   61  A    between atoms: _144  and  _147
REMARK   62  A    between atoms: _147  and  _148
REMARK   63  A    between atoms: _151  and  _153
REMARK   64  A    between atoms: _153  and  _154
REMARK   65  A    between atoms: _153  and  _156
REMARK   66  A    between atoms: _156  and  _157
REMARK   67  A    between atoms: _160  and  _162
REMARK   68  A    between atoms: _162  and  _163
REMARK   69  A    between atoms: _162  and  _165
REMARK   70  A    between atoms: _165  and  _166
REMARK   71  A    between atoms: _166  and  _167
REMARK   72  A    between atoms: _170  and  _172
REMARK   73  A    between atoms: _172  and  _173
REMARK   74  A    between atoms: _175  and  _177
REMARK   75  A    between atoms: _177  and  _178
REMARK   76  A    between atoms: _177  and  _180
REMARK   77  A    between atoms: _183  and  _185
REMARK   78  A    between atoms: _185  and  _186
REMARK   79  A    between atoms: _185  and  _188
REMARK   80  A    between atoms: _188  and  _189
REMARK   81  A    between atoms: _194  and  _195
REMARK   82  A    between atoms: _197  and  _199
REMARK   83  A    between atoms: _199  and  _200
REMARK   84  A    between atoms: _199  and  _202
REMARK   85  A    between atoms: _202  and  _203
REMARK   86  A    between atoms: _205  and  _207
REMARK   87  A    between atoms: _207  and  _208
REMARK   88  A    between atoms: _207  and  _210
REMARK   89  A    between atoms: _210  and  _211
REMARK   90  A    between atoms: _211  and  _212
REMARK   91  A    between atoms: _214  and  _216
REMARK   92  A    between atoms: _216  and  _217
REMARK   93  A    between atoms: _216  and  _219
REMARK   94  A    between atoms: _219  and  _220
REMARK   95  A    between atoms: _223  and  _225
REMARK   96  A    between atoms: _225  and  _226
REMARK   97  A    between atoms: _225  and  _228
REMARK   98  A    between atoms: _228  and  _229
REMARK   99  A    between atoms: _229  and  _230
REMARK  100  A    between atoms: _233  and  _235
REMARK  101  A    between atoms: _235  and  _236
REMARK  102  A    between atoms: _239  and  _241
REMARK  103  A    between atoms: _241  and  _242
REMARK  104  A    between atoms: _241  and  _244
REMARK  105  A    between atoms: _244  and  _245
REMARK  106  A    between atoms: _250  and  _252
REMARK  107  A    between atoms: _252  and  _253
REMARK  108  A    between atoms: _252  and  _255
REMARK  109  A    between atoms: _255  and  _256
REMARK  110  A    between atoms: _258  and  _260
REMARK  111  A    between atoms: _260  and  _261
REMARK  112  A    between atoms: _260  and  _263
REMARK  113  A    between atoms: _266  and  _268
REMARK  114  A    between atoms: _268  and  _269
REMARK  115  A    between atoms: _271  and  _273
REMARK  116  A    between atoms: _273  and  _274
REMARK  117  A    between atoms: _273  and  _276
REMARK  118  A    between atoms: _276  and  _277
REMARK  119  A    between atoms: _280  and  _282
REMARK  120  A    between atoms: _282  and  _283
REMARK  121  A    between atoms: _282  and  _285
REMARK  122  A    between atoms: _285  and  _286
REMARK  123  A    between atoms: _292  and  _294
REMARK  124  A    between atoms: _294  and  _295
REMARK  125  A    between atoms: _294  and  _297
REMARK  126  A    between atoms: _297  and  _298
REMARK  127  A    between atoms: _300  and  _302
REMARK  128  A    between atoms: _302  and  _303
REMARK  129  A    between atoms: _302  and  _305
REMARK  130  A    between atoms: _305  and  _306
REMARK  131  A    between atoms: _306  and  _307
REMARK  132  A    between atoms: _307  and  _308
REMARK  133  A    between atoms: _308  and  _309
REMARK  134  A    between atoms: _313  and  _315
REMARK  135  A    between atoms: _315  and  _316
REMARK  136  A    between atoms: _315  and  _318
REMARK  137  A    between atoms: _318  and  _319
REMARK  138  A    between atoms: _322  and  _324
REMARK  139  A    between atoms: _324  and  _325
REMARK  140  A    between atoms: _324  and  _327
REMARK  141  A    between atoms: _330  and  _332
REMARK  142  A    between atoms: _332  and  _333
REMARK  143  A    between atoms: _335  and  _337
REMARK  144  A    between atoms: _337  and  _338
REMARK  145  A    between atoms: _340  and  _342
REMARK  146  A    between atoms: _342  and  _343
REMARK  147  A    between atoms: _342  and  _345
REMARK  148  A    between atoms: _345  and  _346
REMARK  149  A    between atoms: _352  and  _354
REMARK  150  A    between atoms: _354  and  _355
REMARK  151  A    between atoms: _354  and  _357
REMARK  152  A    between atoms: _357  and  _358
REMARK  153  A    between atoms: _361  and  _363
REMARK  154  A    between atoms: _363  and  _364
REMARK  155  A    between atoms: _363  and  _366
REMARK  156  A    between atoms: _366  and  _367
REMARK  157  A    between atoms: _367  and  _368
REMARK  158  A    between atoms: _368  and  _369
REMARK  159  A    between atoms: _378  and  _380
REMARK  160  A    between atoms: _380  and  _381
REMARK  161  A    between atoms: _384  and  _386
REMARK  162  A    between atoms: _386  and  _387
REMARK  163  A    between atoms: _386  and  _389
REMARK  164  A    between atoms: _389  and  _390
REMARK  165  A    between atoms: _390  and  _391
REMARK  166  A    between atoms: _391  and  _392
REMARK  167  A    between atoms: _401  and  _403
REMARK  168  A    between atoms: _403  and  _404
REMARK  169  A    between atoms: _403  and  _406
REMARK  170  A    between atoms: _406  and  _407
REMARK  171  A    between atoms: _410  and  _412
REMARK  172  A    between atoms: _412  and  _413
REMARK  173  A    between atoms: _412  and  _415
REMARK  174  A    between atoms: _415  and  _416
REMARK  175  A    between atoms: _421  and  _423
REMARK  176  A    between atoms: _423  and  _424
REMARK  177  A    between atoms: _426  and  _428
REMARK  178  A    between atoms: _428  and  _429
REMARK  179  A    between atoms: _428  and  _431
REMARK  180  A    between atoms: _431  and  _432
REMARK  181  A    between atoms: _434  and  _436
REMARK  182  A    between atoms: _436  and  _437
REMARK  183  A    between atoms: _436  and  _439
REMARK  184  A    between atoms: _439  and  _440
REMARK  185  A    between atoms: _440  and  _441
REMARK  186  A    between atoms: _441  and  _442
REMARK  187  A    between atoms: _451  and  _453
REMARK  188  A    between atoms: _453  and  _454
REMARK  189  A    between atoms: _453  and  _456
REMARK  190  A    between atoms: _456  and  _457
REMARK  191  A    between atoms: _457  and  _458
REMARK  192  A    between atoms: _460  and  _462
REMARK  193  A    between atoms: _462  and  _463
REMARK  194  A    between atoms: _462  and  _465
REMARK  195  A    between atoms: _465  and  _466
REMARK  196  A    between atoms: _469  and  _471
REMARK  197  A    between atoms: _471  and  _472
REMARK  198  A    between atoms: _471  and  _474
REMARK  199  A    between atoms: _474  and  _475
REMARK  200  A    between atoms: _480  and  _482
REMARK  201  A    between atoms: _482  and  _483
REMARK  202  A    between atoms: _485  and  _487
REMARK  203  A    between atoms: _487  and  _488
REMARK  204  A    between atoms: _487  and  _490
REMARK  205  A    between atoms: _490  and  _491
REMARK  206  A    between atoms: _493  and  _495
REMARK  207  A    between atoms: _495  and  _496
REMARK  208  A    between atoms: _495  and  _498
REMARK  209  A    between atoms: _498  and  _499
REMARK  210  A    between atoms: _499  and  _500
REMARK  211  A    between atoms: _502  and  _504
REMARK  212  A    between atoms: _504  and  _505
REMARK  213  A    between atoms: _504  and  _507
REMARK  214  A    between atoms: _507  and  _508
REMARK  215  A    between atoms: _508  and  _509
REMARK  216  A    between atoms: _509  and  _510
REMARK  217  A    between atoms: _520  and  _521
REMARK  218  A    between atoms: _526  and  _528
REMARK  219  A    between atoms: _528  and  _529
REMARK  220  A    between atoms: _528  and  _531
REMARK  221  A    between atoms: _531  and  _532
REMARK  222  A    between atoms: _537  and  _538
REMARK  223  A    between atoms: _540  and  _542
REMARK  224  A    between atoms: _542  and  _543
REMARK  225  A    between atoms: _542  and  _545
REMARK  226  A    between atoms: _545  and  _546
REMARK  227  A    between atoms: _549  and  _551
REMARK  228  A    between atoms: _551  and  _552
REMARK  229  A    between atoms: _551  and  _554
REMARK  230  A    between atoms: _554  and  _555
REMARK  231  A    between atoms: _561  and  _563
REMARK  232  A    between atoms: _563  and  _564
REMARK  233  A    between atoms: _563  and  _566
REMARK  234  A    between atoms: _566  and  _567
REMARK  235  A    between atoms: _570  and  _572
REMARK  236  A    between atoms: _572  and  _573
REMARK  237  A    between atoms: _576  and  _578
REMARK  238  A    between atoms: _578  and  _579
REMARK  239  A    between atoms: _578  and  _581
REMARK  240  A    between atoms: _581  and  _582
REMARK                            x       y       z     vdW  Elec       q    Type
REMARK                         _______ _______ _______ _____ _____    ______ ____
ROOT
ATOM      1  O   HOH     1       5.791   9.472  35.738  0.00  0.00    +0.000 OA
ENDROOT
TORSDOF 0
REMARK  Name = ../refined-set-2016/2w8j/2w8j_pocket.pdb
REMARK  240 active torsions:
REMARK  status: ('A' for Active; 'I' for Inactive)
REMARK    1  A    between atoms: _1  and  _3
REMARK    2  A    between atoms: _3  and  _4
REMARK    3  A    between atoms: _3  and  _6
REMARK    4  A    between atoms: _6  and  _7
REMARK    5  A    between atoms: _10  and  _12
REMARK    6  A    between atoms: _12  and  _13
REMARK    7  A    between atoms: _12  and  _15
REMARK    8  A    between atoms: _15  and  _16
REMARK    9  A    between atoms: _21  and  _22
REMARK   10  A    between atoms: _24  and  _26
REMARK   11  A    between atoms: _26  and  _27
REMARK   12  A    between atoms: _26  and  _29
REMARK   13  A    between atoms: _29  and  _30
REMARK   14  A    between atoms: _35  and  _36
REMARK   15  A    between atoms: _38  and  _40
REMARK   16  A    between atoms: _40  and  _41
REMARK   17  A    between atoms: _40  and  _43
REMARK   18  A    between atoms: _43  and  _44
REMARK   19  A    between atoms: _46  and  _48
REMARK   20  A    between atoms: _48  and  _49
REMARK   21  A    between atoms: _48  and  _51
REMARK   22  A    between atoms: _51  and  _52
REMARK   23  A    between atoms: _55  and  _57
REMARK   24  A    between atoms: _57  and  _58
REMARK   25  A    between atoms: _60  and  _62
REMARK   26  A    between atoms: _62  and  _63
REMARK   27  A    between atoms: _62  and  _65
REMARK   28  A    between atoms: _65  and  _66
REMARK   29  A    between atoms: _71  and  _72
REMARK   30  A    between atoms: _74  and  _76
REMARK   31  A    between atoms: _76  and  _77
REMARK   32  A    between atoms: _76  and  _79
REMARK   33  A    between atoms: _79  and  _80
REMARK   34  A    between atoms: _80  and  _81
REMARK   35  A    between atoms: _83  and  _85
REMARK   36  A    between atoms: _85  and  _86
REMARK   37  A    between atoms: _89  and  _91
REMARK   38  A    between atoms: _91  and  _92
REMARK   39  A    between atoms: _91  and  _94
REMARK   40  A    between atoms: _94  and  _95
REMARK   41  A    between atoms: _100  and  _102
REMARK   42  A    between atoms: _102  and  _103
REMARK   43  A    between atoms: _102  and  _105
REMARK   44  A    between atoms: _105  and  _106
REMARK   45  A    between atoms: _109  and  _111
REMARK   46  A    between atoms: _111  and  _112
REMARK   47  A    between atoms: _111  and  _114
REMARK   48  A    between atoms: _114  and  _115
REMARK   49  A    between atoms: _117  and  _119
REMARK   50  A    between atoms: _119  and  _120
REMARK   51  A    between atoms: _119  and  _122
REMARK   52  A    between atoms: _122  and  _123
REMARK   53  A    between atoms: _128  and  _130
REMARK   54  A    between atoms: _130  and  _131
REMARK   55  A    between atoms: _134  and  _136
REMARK   56  A    between atoms: _136  and  _137
REMARK   57  A    between atoms: _136  and  _139
REMARK   58  A    between atoms: _139  and  _140
REMARK   59  A    between atoms: _142  and  _144
REMARK   60  A    between atoms: _144  and  _145
REMARK   61  A    between atoms: _144  and  _147
REMARK   62  A    between atoms: _147  and  _148
REMARK   63  A    between atoms: _151  and  _153
REMARK   64  A    between atoms: _153  and  _154
REMARK   65  A    between atoms: _153  and  _156
REMARK   66  A    between atoms: _156  and  _157
REMARK   67  A    between atoms: _160  and  _162
REMARK   68  A    between atoms: _162  and  _163
REMARK   69  A    between atoms: _162  and  _165
REMARK   70  A    between atoms: _165  and  _166
REMARK   71  A    between atoms: _166  and  _167
REMARK   72  A    between atoms: _170  and  _172
REMARK   73  A    between atoms: _172  and  _173
REMARK   74  A    between atoms: _175  and  _177
REMARK   75  A    between atoms: _177  and  _178
REMARK   76  A    between atoms: _177  and  _180
REMARK   77  A    between atoms: _183  and  _185
REMARK   78  A    between atoms: _185  and  _186
REMARK   79  A    between atoms: _185  and  _188
REMARK   80  A    between atoms: _188  and  _189
REMARK   81  A    between atoms: _194  and  _195
REMARK   82  A    between atoms: _197  and  _199
REMARK   83  A    between atoms: _199  and  _200
REMARK   84  A    between atoms: _199  and  _202
REMARK   85  A    between atoms: _202  and  _203
REMARK   86  A    between atoms: _205  and  _207
REMARK   87  A    between atoms: _207  and  _208
REMARK   88  A    between atoms: _207  and  _210
REMARK   89  A    between atoms: _210  and  _211
REMARK   90  A    between atoms: _211  and  _212
REMARK   91  A    between atoms: _214  and  _216
REMARK   92  A    between atoms: _216  and  _217
REMARK   93  A    between atoms: _216  and  _219
REMARK   94  A    between atoms: _219  and  _220
REMARK   95  A    between atoms: _223  and  _225
REMARK   96  A    between atoms: _225  and  _226
REMARK   97  A    between atoms: _225  and  _228
REMARK   98  A    between atoms: _228  and  _229
REMARK   99  A    between atoms: _229  and  _230
REMARK  100  A    between atoms: _233  and  _235
REMARK  101  A    between atoms: _235  and  _236
REMARK  102  A    between atoms: _239  and  _241
REMARK  103  A    between atoms: _241  and  _242
REMARK  104  A    between atoms: _241  and  _244
REMARK  105  A    between atoms: _244  and  _245
REMARK  106  A    between atoms: _250  and  _252
REMARK  107  A    between atoms: _252  and  _253
REMARK  108  A    between atoms: _252  and  _255
REMARK  109  A    between atoms: _255  and  _256
REMARK  110  A    between atoms: _258  and  _260
REMARK  111  A    between atoms: _260  and  _261
REMARK  112  A    between atoms: _260  and  _263
REMARK  113  A    between atoms: _266  and  _268
REMARK  114  A    between atoms: _268  and  _269
REMARK  115  A    between atoms: _271  and  _273
REMARK  116  A    between atoms: _273  and  _274
REMARK  117  A    between atoms: _273  and  _276
REMARK  118  A    between atoms: _276  and  _277
REMARK  119  A    between atoms: _280  and  _282
REMARK  120  A    between atoms: _282  and  _283
REMARK  121  A    between atoms: _282  and  _285
REMARK  122  A    between atoms: _285  and  _286
REMARK  123  A    between atoms: _292  and  _294
REMARK  124  A    between atoms: _294  and  _295
REMARK  125  A    between atoms: _294  and  _297
REMARK  126  A    between atoms: _297  and  _298
REMARK  127  A    between atoms: _300  and  _302
REMARK  128  A    between atoms: _302  and  _303
REMARK  129  A    between atoms: _302  and  _305
REMARK  130  A    between atoms: _305  and  _306
REMARK  131  A    between atoms: _306  and  _307
REMARK  132  A    between atoms: _307  and  _308
REMARK  133  A    between atoms: _308  and  _309
REMARK  134  A    between atoms: _313  and  _315
REMARK  135  A    between atoms: _315  and  _316
REMARK  136  A    between atoms: _315  and  _318
REMARK  137  A    between atoms: _318  and  _319
REMARK  138  A    between atoms: _322  and  _324
REMARK  139  A    between atoms: _324  and  _325
REMARK  140  A    between atoms: _324  and  _327
REMARK  141  A    between atoms: _330  and  _332
REMARK  142  A    between atoms: _332  and  _333
REMARK  143  A    between atoms: _335  and  _337
REMARK  144  A    between atoms: _337  and  _338
REMARK  145  A    between atoms: _340  and  _342
REMARK  146  A    between atoms: _342  and  _343
REMARK  147  A    between atoms: _342  and  _345
REMARK  148  A    between atoms: _345  and  _346
REMARK  149  A    between atoms: _352  and  _354
REMARK  150  A    between atoms: _354  and  _355
REMARK  151  A    between atoms: _354  and  _357
REMARK  152  A    between atoms: _357  and  _358
REMARK  153  A    between atoms: _361  and  _363
REMARK  154  A    between atoms: _363  and  _364
REMARK  155  A    between atoms: _363  and  _366
REMARK  156  A    between atoms: _366  and  _367
REMARK  157  A    between atoms: _367  and  _368
REMARK  158  A    between atoms: _368  and  _369
REMARK  159  A    between atoms: _378  and  _380
REMARK  160  A    between atoms: _380  and  _381
REMARK  161  A    between atoms: _384  and  _386
REMARK  162  A    between atoms: _386  and  _387
REMARK  163  A    between atoms: _386  and  _389
REMARK  164  A    between atoms: _389  and  _390
REMARK  165  A    between atoms: _390  and  _391
REMARK  166  A    between atoms: _391  and  _392
REMARK  167  A    between atoms: _401  and  _403
REMARK  168  A    between atoms: _403  and  _404
REMARK  169  A    between atoms: _403  and  _406
REMARK  170  A    between atoms: _406  and  _407
REMARK  171  A    between atoms: _410  and  _412
REMARK  172  A    between atoms: _412  and  _413
REMARK  173  A    between atoms: _412  and  _415
REMARK  174  A    between atoms: _415  and  _416
REMARK  175  A    between atoms: _421  and  _423
REMARK  176  A    between atoms: _423  and  _424
REMARK  177  A    between atoms: _426  and  _428
REMARK  178  A    between atoms: _428  and  _429
REMARK  179  A    between atoms: _428  and  _431
REMARK  180  A    between atoms: _431  and  _432
REMARK  181  A    between atoms: _434  and  _436
REMARK  182  A    between atoms: _436  and  _437
REMARK  183  A    between atoms: _436  and  _439
REMARK  184  A    between atoms: _439  and  _440
REMARK  185  A    between atoms: _440  and  _441
REMARK  186  A    between atoms: _441  and  _442
REMARK  187  A    between atoms: _451  and  _453
REMARK  188  A    between atoms: _453  and  _454
REMARK  189  A    between atoms: _453  and  _456
REMARK  190  A    between atoms: _456  and  _457
REMARK  191  A    between atoms: _457  and  _458
REMARK  192  A    between atoms: _460  and  _462
REMARK  193  A    between atoms: _462  and  _463
REMARK  194  A    between atoms: _462  and  _465
REMARK  195  A    between atoms: _465  and  _466
REMARK  196  A    between atoms: _469  and  _471
REMARK  197  A    between atoms: _471  and  _472
REMARK  198  A    between atoms: _471  and  _474
REMARK  199  A    between atoms: _474  and  _475
REMARK  200  A    between atoms: _480  and  _482
REMARK  201  A    between atoms: _482  and  _483
REMARK  202  A    between atoms: _485  and  _487
REMARK  203  A    between atoms: _487  and  _488
REMARK  204  A    between atoms: _487  and  _490
REMARK  205  A    between atoms: _490  and  _491
REMARK  206  A    between atoms: _493  and  _495
REMARK  207  A    between atoms: _495  and  _496
REMARK  208  A    between atoms: _495  and  _498
REMARK  209  A    between atoms: _498  and  _499
REMARK  210  A    between atoms: _499  and  _500
REMARK  211  A    between atoms: _502  and  _504
REMARK  212  A    between atoms: _504  and  _505
REMARK  213  A    between atoms: _504  and  _507
REMARK  214  A    between atoms: _507  and  _508
REMARK  215  A    between atoms: _508  and  _509
REMARK  216  A    between atoms: _509  and  _510
REMARK  217  A    between atoms: _520  and  _521
REMARK  218  A    between atoms: _526  and  _528
REMARK  219  A    between atoms: _528  and  _529
REMARK  220  A    between atoms: _528  and  _531
REMARK  221  A    between atoms: _531  and  _532
REMARK  222  A    between atoms: _537  and  _538
REMARK  223  A    between atoms: _540  and  _542
REMARK  224  A    between atoms: _542  and  _543
REMARK  225  A    between atoms: _542  and  _545
REMARK  226  A    between atoms: _545  and  _546
REMARK  227  A    between atoms: _549  and  _551
REMARK  228  A    between atoms: _551  and  _552
REMARK  229  A    between atoms: _551  and  _554
REMARK  230  A    between atoms: _554  and  _555
REMARK  231  A    between atoms: _561  and  _563
REMARK  232  A    between atoms: _563  and  _564
REMARK  233  A    between atoms: _563  and  _566
REMARK  234  A    between atoms: _566  and  _567
REMARK  235  A    between atoms: _570  and  _572
REMARK  236  A    between atoms: _572  and  _573
REMARK  237  A    between atoms: _576  and  _578
REMARK  238  A    between atoms: _578  and  _579
REMARK  239  A    between atoms: _578  and  _581
REMARK  240  A    between atoms: _581  and  _582
REMARK                            x       y       z     vdW  Elec       q    Type
REMARK                         _______ _______ _______ _____ _____    ______ ____
ROOT
ATOM      1  O   HOH     1      10.864  11.072  35.759  0.00  0.00    +0.000 OA
ENDROOT
TORSDOF 0
REMARK  Name = ../refined-set-2016/2w8j/2w8j_pocket.pdb
REMARK  240 active torsions:
REMARK  status: ('A' for Active; 'I' for Inactive)
REMARK    1  A    between atoms: _1  and  _3
REMARK    2  A    between atoms: _3  and  _4
REMARK    3  A    between atoms: _3  and  _6
REMARK    4  A    between atoms: _6  and  _7
REMARK    5  A    between atoms: _10  and  _12
REMARK    6  A    between atoms: _12  and  _13
REMARK    7  A    between atoms: _12  and  _15
REMARK    8  A    between atoms: _15  and  _16
REMARK    9  A    between atoms: _21  and  _22
REMARK   10  A    between atoms: _24  and  _26
REMARK   11  A    between atoms: _26  and  _27
REMARK   12  A    between atoms: _26  and  _29
REMARK   13  A    between atoms: _29  and  _30
REMARK   14  A    between atoms: _35  and  _36
REMARK   15  A    between atoms: _38  and  _40
REMARK   16  A    between atoms: _40  and  _41
REMARK   17  A    between atoms: _40  and  _43
REMARK   18  A    between atoms: _43  and  _44
REMARK   19  A    between atoms: _46  and  _48
REMARK   20  A    between atoms: _48  and  _49
REMARK   21  A    between atoms: _48  and  _51
REMARK   22  A    between atoms: _51  and  _52
REMARK   23  A    between atoms: _55  and  _57
REMARK   24  A    between atoms: _57  and  _58
REMARK   25  A    between atoms: _60  and  _62
REMARK   26  A    between atoms: _62  and  _63
REMARK   27  A    between atoms: _62  and  _65
REMARK   28  A    between atoms: _65  and  _66
REMARK   29  A    between atoms: _71  and  _72
REMARK   30  A    between atoms: _74  and  _76
REMARK   31  A    between atoms: _76  and  _77
REMARK   32  A    between atoms: _76  and  _79
REMARK   33  A    between atoms: _79  and  _80
REMARK   34  A    between atoms: _80  and  _81
REMARK   35  A    between atoms: _83  and  _85
REMARK   36  A    between atoms: _85  and  _86
REMARK   37  A    between atoms: _89  and  _91
REMARK   38  A    between atoms: _91  and  _92
REMARK   39  A    between atoms: _91  and  _94
REMARK   40  A    between atoms: _94  and  _95
REMARK   41  A    between atoms: _100  and  _102
REMARK   42  A    between atoms: _102  and  _103
REMARK   43  A    between atoms: _102  and  _105
REMARK   44  A    between atoms: _105  and  _106
REMARK   45  A    between atoms: _109  and  _111
REMARK   46  A    between atoms: _111  and  _112
REMARK   47  A    between atoms: _111  and  _114
REMARK   48  A    between atoms: _114  and  _115
REMARK   49  A    between atoms: _117  and  _119
REMARK   50  A    between atoms: _119  and  _120
REMARK   51  A    between atoms: _119  and  _122
REMARK   52  A    between atoms: _122  and  _123
REMARK   53  A    between atoms: _128  and  _130
REMARK   54  A    between atoms: _130  and  _131
REMARK   55  A    between atoms: _134  and  _136
REMARK   56  A    between atoms: _136  and  _137
REMARK   57  A    between atoms: _136  and  _139
REMARK   58  A    between atoms: _139  and  _140
REMARK   59  A    between atoms: _142  and  _144
REMARK   60  A    between atoms: _144  and  _145
REMARK   61  A    between atoms: _144  and  _147
REMARK   62  A    between atoms: _147  and  _148
REMARK   63  A    between atoms: _151  and  _153
REMARK   64  A    between atoms: _153  and  _154
REMARK   65  A    between atoms: _153  and  _156
REMARK   66  A    between atoms: _156  and  _157
REMARK   67  A    between atoms: _160  and  _162
REMARK   68  A    between atoms: _162  and  _163
REMARK   69  A    between atoms: _162  and  _165
REMARK   70  A    between atoms: _165  and  _166
REMARK   71  A    between atoms: _166  and  _167
REMARK   72  A    between atoms: _170  and  _172
REMARK   73  A    between atoms: _172  and  _173
REMARK   74  A    between atoms: _175  and  _177
REMARK   75  A    between atoms: _177  and  _178
REMARK   76  A    between atoms: _177  and  _180
REMARK   77  A    between atoms: _183  and  _185
REMARK   78  A    between atoms: _185  and  _186
REMARK   79  A    between atoms: _185  and  _188
REMARK   80  A    between atoms: _188  and  _189
REMARK   81  A    between atoms: _194  and  _195
REMARK   82  A    between atoms: _197  and  _199
REMARK   83  A    between atoms: _199  and  _200
REMARK   84  A    between atoms: _199  and  _202
REMARK   85  A    between atoms: _202  and  _203
REMARK   86  A    between atoms: _205  and  _207
REMARK   87  A    between atoms: _207  and  _208
REMARK   88  A    between atoms: _207  and  _210
REMARK   89  A    between atoms: _210  and  _211
REMARK   90  A    between atoms: _211  and  _212
REMARK   91  A    between atoms: _214  and  _216
REMARK   92  A    between atoms: _216  and  _217
REMARK   93  A    between atoms: _216  and  _219
REMARK   94  A    between atoms: _219  and  _220
REMARK   95  A    between atoms: _223  and  _225
REMARK   96  A    between atoms: _225  and  _226
REMARK   97  A    between atoms: _225  and  _228
REMARK   98  A    between atoms: _228  and  _229
REMARK   99  A    between atoms: _229  and  _230
REMARK  100  A    between atoms: _233  and  _235
REMARK  101  A    between atoms: _235  and  _236
REMARK  102  A    between atoms: _239  and  _241
REMARK  103  A    between atoms: _241  and  _242
REMARK  104  A    between atoms: _241  and  _244
REMARK  105  A    between atoms: _244  and  _245
REMARK  106  A    between atoms: _250  and  _252
REMARK  107  A    between atoms: _252  and  _253
REMARK  108  A    between atoms: _252  and  _255
REMARK  109  A    between atoms: _255  and  _256
REMARK  110  A    between atoms: _258  and  _260
REMARK  111  A    between atoms: _260  and  _261
REMARK  112  A    between atoms: _260  and  _263
REMARK  113  A    between atoms: _266  and  _268
REMARK  114  A    between atoms: _268  and  _269
REMARK  115  A    between atoms: _271  and  _273
REMARK  116  A    between atoms: _273  and  _274
REMARK  117  A    between atoms: _273  and  _276
REMARK  118  A    between atoms: _276  and  _277
REMARK  119  A    between atoms: _280  and  _282
REMARK  120  A    between atoms: _282  and  _283
REMARK  121  A    between atoms: _282  and  _285
REMARK  122  A    between atoms: _285  and  _286
REMARK  123  A    between atoms: _292  and  _294
REMARK  124  A    between atoms: _294  and  _295
REMARK  125  A    between atoms: _294  and  _297
REMARK  126  A    between atoms: _297  and  _298
REMARK  127  A    between atoms: _300  and  _302
REMARK  128  A    between atoms: _302  and  _303
REMARK  129  A    between atoms: _302  and  _305
REMARK  130  A    between atoms: _305  and  _306
REMARK  131  A    between atoms: _306  and  _307
REMARK  132  A    between atoms: _307  and  _308
REMARK  133  A    between atoms: _308  and  _309
REMARK  134  A    between atoms: _313  and  _315
REMARK  135  A    between atoms: _315  and  _316
REMARK  136  A    between atoms: _315  and  _318
REMARK  137  A    between atoms: _318  and  _319
REMARK  138  A    between atoms: _322  and  _324
REMARK  139  A    between atoms: _324  and  _325
REMARK  140  A    between atoms: _324  and  _327
REMARK  141  A    between atoms: _330  and  _332
REMARK  142  A    between atoms: _332  and  _333
REMARK  143  A    between atoms: _335  and  _337
REMARK  144  A    between atoms: _337  and  _338
REMARK  145  A    between atoms: _340  and  _342
REMARK  146  A    between atoms: _342  and  _343
REMARK  147  A    between atoms: _342  and  _345
REMARK  148  A    between atoms: _345  and  _346
REMARK  149  A    between atoms: _352  and  _354
REMARK  150  A    between atoms: _354  and  _355
REMARK  151  A    between atoms: _354  and  _357
REMARK  152  A    between atoms: _357  and  _358
REMARK  153  A    between atoms: _361  and  _363
REMARK  154  A    between atoms: _363  and  _364
REMARK  155  A    between atoms: _363  and  _366
REMARK  156  A    between atoms: _366  and  _367
REMARK  157  A    between atoms: _367  and  _368
REMARK  158  A    between atoms: _368  and  _369
REMARK  159  A    between atoms: _378  and  _380
REMARK  160  A    between atoms: _380  and  _381
REMARK  161  A    between atoms: _384  and  _386
REMARK  162  A    between atoms: _386  and  _387
REMARK  163  A    between atoms: _386  and  _389
REMARK  164  A    between atoms: _389  and  _390
REMARK  165  A    between atoms: _390  and  _391
REMARK  166  A    between atoms: _391  and  _392
REMARK  167  A    between atoms: _401  and  _403
REMARK  168  A    between atoms: _403  and  _404
REMARK  169  A    between atoms: _403  and  _406
REMARK  170  A    between atoms: _406  and  _407
REMARK  171  A    between atoms: _410  and  _412
REMARK  172  A    between atoms: _412  and  _413
REMARK  173  A    between atoms: _412  and  _415
REMARK  174  A    between atoms: _415  and  _416
REMARK  175  A    between atoms: _421  and  _423
REMARK  176  A    between atoms: _423  and  _424
REMARK  177  A    between atoms: _426  and  _428
REMARK  178  A    between atoms: _428  and  _429
REMARK  179  A    between atoms: _428  and  _431
REMARK  180  A    between atoms: _431  and  _432
REMARK  181  A    between atoms: _434  and  _436
REMARK  182  A    between atoms: _436  and  _437
REMARK  183  A    between atoms: _436  and  _439
REMARK  184  A    between atoms: _439  and  _440
REMARK  185  A    between atoms: _440  and  _441
REMARK  186  A    between atoms: _441  and  _442
REMARK  187  A    between atoms: _451  and  _453
REMARK  188  A    between atoms: _453  and  _454
REMARK  189  A    between atoms: _453  and  _456
REMARK  190  A    between atoms: _456  and  _457
REMARK  191  A    between atoms: _457  and  _458
REMARK  192  A    between atoms: _460  and  _462
REMARK  193  A    between atoms: _462  and  _463
REMARK  194  A    between atoms: _462  and  _465
REMARK  195  A    between atoms: _465  and  _466
REMARK  196  A    between atoms: _469  and  _471
REMARK  197  A    between atoms: _471  and  _472
REMARK  198  A    between atoms: _471  and  _474
REMARK  199  A    between atoms: _474  and  _475
REMARK  200  A    between atoms: _480  and  _482
REMARK  201  A    between atoms: _482  and  _483
REMARK  202  A    between atoms: _485  and  _487
REMARK  203  A    between atoms: _487  and  _488
REMARK  204  A    between atoms: _487  and  _490
REMARK  205  A    between atoms: _490  and  _491
REMARK  206  A    between atoms: _493  and  _495
REMARK  207  A    between atoms: _495  and  _496
REMARK  208  A    between atoms: _495  and  _498
REMARK  209  A    between atoms: _498  and  _499
REMARK  210  A    between atoms: _499  and  _500
REMARK  211  A    between atoms: _502  and  _504
REMARK  212  A    between atoms: _504  and  _505
REMARK  213  A    between atoms: _504  and  _507
REMARK  214  A    between atoms: _507  and  _508
REMARK  215  A    between atoms: _508  and  _509
REMARK  216  A    between atoms: _509  and  _510
REMARK  217  A    between atoms: _520  and  _521
REMARK  218  A    between atoms: _526  and  _528
REMARK  219  A    between atoms: _528  and  _529
REMARK  220  A    between atoms: _528  and  _531
REMARK  221  A    between atoms: _531  and  _532
REMARK  222  A    between atoms: _537  and  _538
REMARK  223  A    between atoms: _540  and  _542
REMARK  224  A    between atoms: _542  and  _543
REMARK  225  A    between atoms: _542  and  _545
REMARK  226  A    between atoms: _545  and  _546
REMARK  227  A    between atoms: _549  and  _551
REMARK  228  A    between atoms: _551  and  _552
REMARK  229  A    between atoms: _551  and  _554
REMARK  230  A    between atoms: _554  and  _555
REMARK  231  A    between atoms: _561  and  _563
REMARK  232  A    between atoms: _563  and  _564
REMARK  233  A    between atoms: _563  and  _566
REMARK  234  A    between atoms: _566  and  _567
REMARK  235  A    between atoms: _570  and  _572
REMARK  236  A    between atoms: _572  and  _573
REMARK  237  A    between atoms: _576  and  _578
REMARK  238  A    between atoms: _578  and  _579
REMARK  239  A    between atoms: _578  and  _581
REMARK  240  A    between atoms: _581  and  _582
REMARK                            x       y       z     vdW  Elec       q    Type
REMARK                         _______ _______ _______ _____ _____    ______ ____
ROOT
ATOM      1  O   HOH     1      13.320  12.777  34.535  0.00  0.00    +0.000 OA
ENDROOT
TORSDOF 0
REMARK  Name = ../refined-set-2016/2w8j/2w8j_pocket.pdb
REMARK  240 active torsions:
REMARK  status: ('A' for Active; 'I' for Inactive)
REMARK    1  A    between atoms: _1  and  _3
REMARK    2  A    between atoms: _3  and  _4
REMARK    3  A    between atoms: _3  and  _6
REMARK    4  A    between atoms: _6  and  _7
REMARK    5  A    between atoms: _10  and  _12
REMARK    6  A    between atoms: _12  and  _13
REMARK    7  A    between atoms: _12  and  _15
REMARK    8  A    between atoms: _15  and  _16
REMARK    9  A    between atoms: _21  and  _22
REMARK   10  A    between atoms: _24  and  _26
REMARK   11  A    between atoms: _26  and  _27
REMARK   12  A    between atoms: _26  and  _29
REMARK   13  A    between atoms: _29  and  _30
REMARK   14  A    between atoms: _35  and  _36
REMARK   15  A    between atoms: _38  and  _40
REMARK   16  A    between atoms: _40  and  _41
REMARK   17  A    between atoms: _40  and  _43
REMARK   18  A    between atoms: _43  and  _44
REMARK   19  A    between atoms: _46  and  _48
REMARK   20  A    between atoms: _48  and  _49
REMARK   21  A    between atoms: _48  and  _51
REMARK   22  A    between atoms: _51  and  _52
REMARK   23  A    between atoms: _55  and  _57
REMARK   24  A    between atoms: _57  and  _58
REMARK   25  A    between atoms: _60  and  _62
REMARK   26  A    between atoms: _62  and  _63
REMARK   27  A    between atoms: _62  and  _65
REMARK   28  A    between atoms: _65  and  _66
REMARK   29  A    between atoms: _71  and  _72
REMARK   30  A    between atoms: _74  and  _76
REMARK   31  A    between atoms: _76  and  _77
REMARK   32  A    between atoms: _76  and  _79
REMARK   33  A    between atoms: _79  and  _80
REMARK   34  A    between atoms: _80  and  _81
REMARK   35  A    between atoms: _83  and  _85
REMARK   36  A    between atoms: _85  and  _86
REMARK   37  A    between atoms: _89  and  _91
REMARK   38  A    between atoms: _91  and  _92
REMARK   39  A    between atoms: _91  and  _94
REMARK   40  A    between atoms: _94  and  _95
REMARK   41  A    between atoms: _100  and  _102
REMARK   42  A    between atoms: _102  and  _103
REMARK   43  A    between atoms: _102  and  _105
REMARK   44  A    between atoms: _105  and  _106
REMARK   45  A    between atoms: _109  and  _111
REMARK   46  A    between atoms: _111  and  _112
REMARK   47  A    between atoms: _111  and  _114
REMARK   48  A    between atoms: _114  and  _115
REMARK   49  A    between atoms: _117  and  _119
REMARK   50  A    between atoms: _119  and  _120
REMARK   51  A    between atoms: _119  and  _122
REMARK   52  A    between atoms: _122  and  _123
REMARK   53  A    between atoms: _128  and  _130
REMARK   54  A    between atoms: _130  and  _131
REMARK   55  A    between atoms: _134  and  _136
REMARK   56  A    between atoms: _136  and  _137
REMARK   57  A    between atoms: _136  and  _139
REMARK   58  A    between atoms: _139  and  _140
REMARK   59  A    between atoms: _142  and  _144
REMARK   60  A    between atoms: _144  and  _145
REMARK   61  A    between atoms: _144  and  _147
REMARK   62  A    between atoms: _147  and  _148
REMARK   63  A    between atoms: _151  and  _153
REMARK   64  A    between atoms: _153  and  _154
REMARK   65  A    between atoms: _153  and  _156
REMARK   66  A    between atoms: _156  and  _157
REMARK   67  A    between atoms: _160  and  _162
REMARK   68  A    between atoms: _162  and  _163
REMARK   69  A    between atoms: _162  and  _165
REMARK   70  A    between atoms: _165  and  _166
REMARK   71  A    between atoms: _166  and  _167
REMARK   72  A    between atoms: _170  and  _172
REMARK   73  A    between atoms: _172  and  _173
REMARK   74  A    between atoms: _175  and  _177
REMARK   75  A    between atoms: _177  and  _178
REMARK   76  A    between atoms: _177  and  _180
REMARK   77  A    between atoms: _183  and  _185
REMARK   78  A    between atoms: _185  and  _186
REMARK   79  A    between atoms: _185  and  _188
REMARK   80  A    between atoms: _188  and  _189
REMARK   81  A    between atoms: _194  and  _195
REMARK   82  A    between atoms: _197  and  _199
REMARK   83  A    between atoms: _199  and  _200
REMARK   84  A    between atoms: _199  and  _202
REMARK   85  A    between atoms: _202  and  _203
REMARK   86  A    between atoms: _205  and  _207
REMARK   87  A    between atoms: _207  and  _208
REMARK   88  A    between atoms: _207  and  _210
REMARK   89  A    between atoms: _210  and  _211
REMARK   90  A    between atoms: _211  and  _212
REMARK   91  A    between atoms: _214  and  _216
REMARK   92  A    between atoms: _216  and  _217
REMARK   93  A    between atoms: _216  and  _219
REMARK   94  A    between atoms: _219  and  _220
REMARK   95  A    between atoms: _223  and  _225
REMARK   96  A    between atoms: _225  and  _226
REMARK   97  A    between atoms: _225  and  _228
REMARK   98  A    between atoms: _228  and  _229
REMARK   99  A    between atoms: _229  and  _230
REMARK  100  A    between atoms: _233  and  _235
REMARK  101  A    between atoms: _235  and  _236
REMARK  102  A    between atoms: _239  and  _241
REMARK  103  A    between atoms: _241  and  _242
REMARK  104  A    between atoms: _241  and  _244
REMARK  105  A    between atoms: _244  and  _245
REMARK  106  A    between atoms: _250  and  _252
REMARK  107  A    between atoms: _252  and  _253
REMARK  108  A    between atoms: _252  and  _255
REMARK  109  A    between atoms: _255  and  _256
REMARK  110  A    between atoms: _258  and  _260
REMARK  111  A    between atoms: _260  and  _261
REMARK  112  A    between atoms: _260  and  _263
REMARK  113  A    between atoms: _266  and  _268
REMARK  114  A    between atoms: _268  and  _269
REMARK  115  A    between atoms: _271  and  _273
REMARK  116  A    between atoms: _273  and  _274
REMARK  117  A    between atoms: _273  and  _276
REMARK  118  A    between atoms: _276  and  _277
REMARK  119  A    between atoms: _280  and  _282
REMARK  120  A    between atoms: _282  and  _283
REMARK  121  A    between atoms: _282  and  _285
REMARK  122  A    between atoms: _285  and  _286
REMARK  123  A    between atoms: _292  and  _294
REMARK  124  A    between atoms: _294  and  _295
REMARK  125  A    between atoms: _294  and  _297
REMARK  126  A    between atoms: _297  and  _298
REMARK  127  A    between atoms: _300  and  _302
REMARK  128  A    between atoms: _302  and  _303
REMARK  129  A    between atoms: _302  and  _305
REMARK  130  A    between atoms: _305  and  _306
REMARK  131  A    between atoms: _306  and  _307
REMARK  132  A    between atoms: _307  and  _308
REMARK  133  A    between atoms: _308  and  _309
REMARK  134  A    between atoms: _313  and  _315
REMARK  135  A    between atoms: _315  and  _316
REMARK  136  A    between atoms: _315  and  _318
REMARK  137  A    between atoms: _318  and  _319
REMARK  138  A    between atoms: _322  and  _324
REMARK  139  A    between atoms: _324  and  _325
REMARK  140  A    between atoms: _324  and  _327
REMARK  141  A    between atoms: _330  and  _332
REMARK  142  A    between atoms: _332  and  _333
REMARK  143  A    between atoms: _335  and  _337
REMARK  144  A    between atoms: _337  and  _338
REMARK  145  A    between atoms: _340  and  _342
REMARK  146  A    between atoms: _342  and  _343
REMARK  147  A    between atoms: _342  and  _345
REMARK  148  A    between atoms: _345  and  _346
REMARK  149  A    between atoms: _352  and  _354
REMARK  150  A    between atoms: _354  and  _355
REMARK  151  A    between atoms: _354  and  _357
REMARK  152  A    between atoms: _357  and  _358
REMARK  153  A    between atoms: _361  and  _363
REMARK  154  A    between atoms: _363  and  _364
REMARK  155  A    between atoms: _363  and  _366
REMARK  156  A    between atoms: _366  and  _367
REMARK  157  A    between atoms: _367  and  _368
REMARK  158  A    between atoms: _368  and  _369
REMARK  159  A    between atoms: _378  and  _380
REMARK  160  A    between atoms: _380  and  _381
REMARK  161  A    between atoms: _384  and  _386
REMARK  162  A    between atoms: _386  and  _387
REMARK  163  A    between atoms: _386  and  _389
REMARK  164  A    between atoms: _389  and  _390
REMARK  165  A    between atoms: _390  and  _391
REMARK  166  A    between atoms: _391  and  _392
REMARK  167  A    between atoms: _401  and  _403
REMARK  168  A    between atoms: _403  and  _404
REMARK  169  A    between atoms: _403  and  _406
REMARK  170  A    between atoms: _406  and  _407
REMARK  171  A    between atoms: _410  and  _412
REMARK  172  A    between atoms: _412  and  _413
REMARK  173  A    between atoms: _412  and  _415
REMARK  174  A    between atoms: _415  and  _416
REMARK  175  A    between atoms: _421  and  _423
REMARK  176  A    between atoms: _423  and  _424
REMARK  177  A    between atoms: _426  and  _428
REMARK  178  A    between atoms: _428  and  _429
REMARK  179  A    between atoms: _428  and  _431
REMARK  180  A    between atoms: _431  and  _432
REMARK  181  A    between atoms: _434  and  _436
REMARK  182  A    between atoms: _436  and  _437
REMARK  183  A    between atoms: _436  and  _439
REMARK  184  A    between atoms: _439  and  _440
REMARK  185  A    between atoms: _440  and  _441
REMARK  186  A    between atoms: _441  and  _442
REMARK  187  A    between atoms: _451  and  _453
REMARK  188  A    between atoms: _453  and  _454
REMARK  189  A    between atoms: _453  and  _456
REMARK  190  A    between atoms: _456  and  _457
REMARK  191  A    between atoms: _457  and  _458
REMARK  192  A    between atoms: _460  and  _462
REMARK  193  A    between atoms: _462  and  _463
REMARK  194  A    between atoms: _462  and  _465
REMARK  195  A    between atoms: _465  and  _466
REMARK  196  A    between atoms: _469  and  _471
REMARK  197  A    between atoms: _471  and  _472
REMARK  198  A    between atoms: _471  and  _474
REMARK  199  A    between atoms: _474  and  _475
REMARK  200  A    between atoms: _480  and  _482
REMARK  201  A    between atoms: _482  and  _483
REMARK  202  A    between atoms: _485  and  _487
REMARK  203  A    between atoms: _487  and  _488
REMARK  204  A    between atoms: _487  and  _490
REMARK  205  A    between atoms: _490  and  _491
REMARK  206  A    between atoms: _493  and  _495
REMARK  207  A    between atoms: _495  and  _496
REMARK  208  A    between atoms: _495  and  _498
REMARK  209  A    between atoms: _498  and  _499
REMARK  210  A    between atoms: _499  and  _500
REMARK  211  A    between atoms: _502  and  _504
REMARK  212  A    between atoms: _504  and  _505
REMARK  213  A    between atoms: _504  and  _507
REMARK  214  A    between atoms: _507  and  _508
REMARK  215  A    between atoms: _508  and  _509
REMARK  216  A    between atoms: _509  and  _510
REMARK  217  A    between atoms: _520  and  _521
REMARK  218  A    between atoms: _526  and  _528
REMARK  219  A    between atoms: _528  and  _529
REMARK  220  A    between atoms: _528  and  _531
REMARK  221  A    between atoms: _531  and  _532
REMARK  222  A    between atoms: _537  and  _538
REMARK  223  A    between atoms: _540  and  _542
REMARK  224  A    between atoms: _542  and  _543
REMARK  225  A    between atoms: _542  and  _545
REMARK  226  A    between atoms: _545  and  _546
REMARK  227  A    between atoms: _549  and  _551
REMARK  228  A    between atoms: _551  and  _552
REMARK  229  A    between atoms: _551  and  _554
REMARK  230  A    between atoms: _554  and  _555
REMARK  231  A    between atoms: _561  and  _563
REMARK  232  A    between atoms: _563  and  _564
REMARK  233  A    between atoms: _563  and  _566
REMARK  234  A    between atoms: _566  and  _567
REMARK  235  A    between atoms: _570  and  _572
REMARK  236  A    between atoms: _572  and  _573
REMARK  237  A    between atoms: _576  and  _578
REMARK  238  A    between atoms: _578  and  _579
REMARK  239  A    between atoms: _578  and  _581
REMARK  240  A    between atoms: _581  and  _582
REMARK                            x       y       z     vdW  Elec       q    Type
REMARK                         _______ _______ _______ _____ _____    ______ ____
ROOT
ATOM      1  O   HOH     1       8.086  11.602  39.546  0.00  0.00    +0.000 OA
ENDROOT
TORSDOF 0
REMARK  Name = ../refined-set-2016/2w8j/2w8j_pocket.pdb
REMARK  240 active torsions:
REMARK  status: ('A' for Active; 'I' for Inactive)
REMARK    1  A    between atoms: _1  and  _3
REMARK    2  A    between atoms: _3  and  _4
REMARK    3  A    between atoms: _3  and  _6
REMARK    4  A    between atoms: _6  and  _7
REMARK    5  A    between atoms: _10  and  _12
REMARK    6  A    between atoms: _12  and  _13
REMARK    7  A    between atoms: _12  and  _15
REMARK    8  A    between atoms: _15  and  _16
REMARK    9  A    between atoms: _21  and  _22
REMARK   10  A    between atoms: _24  and  _26
REMARK   11  A    between atoms: _26  and  _27
REMARK   12  A    between atoms: _26  and  _29
REMARK   13  A    between atoms: _29  and  _30
REMARK   14  A    between atoms: _35  and  _36
REMARK   15  A    between atoms: _38  and  _40
REMARK   16  A    between atoms: _40  and  _41
REMARK   17  A    between atoms: _40  and  _43
REMARK   18  A    between atoms: _43  and  _44
REMARK   19  A    between atoms: _46  and  _48
REMARK   20  A    between atoms: _48  and  _49
REMARK   21  A    between atoms: _48  and  _51
REMARK   22  A    between atoms: _51  and  _52
REMARK   23  A    between atoms: _55  and  _57
REMARK   24  A    between atoms: _57  and  _58
REMARK   25  A    between atoms: _60  and  _62
REMARK   26  A    between atoms: _62  and  _63
REMARK   27  A    between atoms: _62  and  _65
REMARK   28  A    between atoms: _65  and  _66
REMARK   29  A    between atoms: _71  and  _72
REMARK   30  A    between atoms: _74  and  _76
REMARK   31  A    between atoms: _76  and  _77
REMARK   32  A    between atoms: _76  and  _79
REMARK   33  A    between atoms: _79  and  _80
REMARK   34  A    between atoms: _80  and  _81
REMARK   35  A    between atoms: _83  and  _85
REMARK   36  A    between atoms: _85  and  _86
REMARK   37  A    between atoms: _89  and  _91
REMARK   38  A    between atoms: _91  and  _92
REMARK   39  A    between atoms: _91  and  _94
REMARK   40  A    between atoms: _94  and  _95
REMARK   41  A    between atoms: _100  and  _102
REMARK   42  A    between atoms: _102  and  _103
REMARK   43  A    between atoms: _102  and  _105
REMARK   44  A    between atoms: _105  and  _106
REMARK   45  A    between atoms: _109  and  _111
REMARK   46  A    between atoms: _111  and  _112
REMARK   47  A    between atoms: _111  and  _114
REMARK   48  A    between atoms: _114  and  _115
REMARK   49  A    between atoms: _117  and  _119
REMARK   50  A    between atoms: _119  and  _120
REMARK   51  A    between atoms: _119  and  _122
REMARK   52  A    between atoms: _122  and  _123
REMARK   53  A    between atoms: _128  and  _130
REMARK   54  A    between atoms: _130  and  _131
REMARK   55  A    between atoms: _134  and  _136
REMARK   56  A    between atoms: _136  and  _137
REMARK   57  A    between atoms: _136  and  _139
REMARK   58  A    between atoms: _139  and  _140
REMARK   59  A    between atoms: _142  and  _144
REMARK   60  A    between atoms: _144  and  _145
REMARK   61  A    between atoms: _144  and  _147
REMARK   62  A    between atoms: _147  and  _148
REMARK   63  A    between atoms: _151  and  _153
REMARK   64  A    between atoms: _153  and  _154
REMARK   65  A    between atoms: _153  and  _156
REMARK   66  A    between atoms: _156  and  _157
REMARK   67  A    between atoms: _160  and  _162
REMARK   68  A    between atoms: _162  and  _163
REMARK   69  A    between atoms: _162  and  _165
REMARK   70  A    between atoms: _165  and  _166
REMARK   71  A    between atoms: _166  and  _167
REMARK   72  A    between atoms: _170  and  _172
REMARK   73  A    between atoms: _172  and  _173
REMARK   74  A    between atoms: _175  and  _177
REMARK   75  A    between atoms: _177  and  _178
REMARK   76  A    between atoms: _177  and  _180
REMARK   77  A    between atoms: _183  and  _185
REMARK   78  A    between atoms: _185  and  _186
REMARK   79  A    between atoms: _185  and  _188
REMARK   80  A    between atoms: _188  and  _189
REMARK   81  A    between atoms: _194  and  _195
REMARK   82  A    between atoms: _197  and  _199
REMARK   83  A    between atoms: _199  and  _200
REMARK   84  A    between atoms: _199  and  _202
REMARK   85  A    between atoms: _202  and  _203
REMARK   86  A    between atoms: _205  and  _207
REMARK   87  A    between atoms: _207  and  _208
REMARK   88  A    between atoms: _207  and  _210
REMARK   89  A    between atoms: _210  and  _211
REMARK   90  A    between atoms: _211  and  _212
REMARK   91  A    between atoms: _214  and  _216
REMARK   92  A    between atoms: _216  and  _217
REMARK   93  A    between atoms: _216  and  _219
REMARK   94  A    between atoms: _219  and  _220
REMARK   95  A    between atoms: _223  and  _225
REMARK   96  A    between atoms: _225  and  _226
REMARK   97  A    between atoms: _225  and  _228
REMARK   98  A    between atoms: _228  and  _229
REMARK   99  A    between atoms: _229  and  _230
REMARK  100  A    between atoms: _233  and  _235
REMARK  101  A    between atoms: _235  and  _236
REMARK  102  A    between atoms: _239  and  _241
REMARK  103  A    between atoms: _241  and  _242
REMARK  104  A    between atoms: _241  and  _244
REMARK  105  A    between atoms: _244  and  _245
REMARK  106  A    between atoms: _250  and  _252
REMARK  107  A    between atoms: _252  and  _253
REMARK  108  A    between atoms: _252  and  _255
REMARK  109  A    between atoms: _255  and  _256
REMARK  110  A    between atoms: _258  and  _260
REMARK  111  A    between atoms: _260  and  _261
REMARK  112  A    between atoms: _260  and  _263
REMARK  113  A    between atoms: _266  and  _268
REMARK  114  A    between atoms: _268  and  _269
REMARK  115  A    between atoms: _271  and  _273
REMARK  116  A    between atoms: _273  and  _274
REMARK  117  A    between atoms: _273  and  _276
REMARK  118  A    between atoms: _276  and  _277
REMARK  119  A    between atoms: _280  and  _282
REMARK  120  A    between atoms: _282  and  _283
REMARK  121  A    between atoms: _282  and  _285
REMARK  122  A    between atoms: _285  and  _286
REMARK  123  A    between atoms: _292  and  _294
REMARK  124  A    between atoms: _294  and  _295
REMARK  125  A    between atoms: _294  and  _297
REMARK  126  A    between atoms: _297  and  _298
REMARK  127  A    between atoms: _300  and  _302
REMARK  128  A    between atoms: _302  and  _303
REMARK  129  A    between atoms: _302  and  _305
REMARK  130  A    between atoms: _305  and  _306
REMARK  131  A    between atoms: _306  and  _307
REMARK  132  A    between atoms: _307  and  _308
REMARK  133  A    between atoms: _308  and  _309
REMARK  134  A    between atoms: _313  and  _315
REMARK  135  A    between atoms: _315  and  _316
REMARK  136  A    between atoms: _315  and  _318
REMARK  137  A    between atoms: _318  and  _319
REMARK  138  A    between atoms: _322  and  _324
REMARK  139  A    between atoms: _324  and  _325
REMARK  140  A    between atoms: _324  and  _327
REMARK  141  A    between atoms: _330  and  _332
REMARK  142  A    between atoms: _332  and  _333
REMARK  143  A    between atoms: _335  and  _337
REMARK  144  A    between atoms: _337  and  _338
REMARK  145  A    between atoms: _340  and  _342
REMARK  146  A    between atoms: _342  and  _343
REMARK  147  A    between atoms: _342  and  _345
REMARK  148  A    between atoms: _345  and  _346
REMARK  149  A    between atoms: _352  and  _354
REMARK  150  A    between atoms: _354  and  _355
REMARK  151  A    between atoms: _354  and  _357
REMARK  152  A    between atoms: _357  and  _358
REMARK  153  A    between atoms: _361  and  _363
REMARK  154  A    between atoms: _363  and  _364
REMARK  155  A    between atoms: _363  and  _366
REMARK  156  A    between atoms: _366  and  _367
REMARK  157  A    between atoms: _367  and  _368
REMARK  158  A    between atoms: _368  and  _369
REMARK  159  A    between atoms: _378  and  _380
REMARK  160  A    between atoms: _380  and  _381
REMARK  161  A    between atoms: _384  and  _386
REMARK  162  A    between atoms: _386  and  _387
REMARK  163  A    between atoms: _386  and  _389
REMARK  164  A    between atoms: _389  and  _390
REMARK  165  A    between atoms: _390  and  _391
REMARK  166  A    between atoms: _391  and  _392
REMARK  167  A    between atoms: _401  and  _403
REMARK  168  A    between atoms: _403  and  _404
REMARK  169  A    between atoms: _403  and  _406
REMARK  170  A    between atoms: _406  and  _407
REMARK  171  A    between atoms: _410  and  _412
REMARK  172  A    between atoms: _412  and  _413
REMARK  173  A    between atoms: _412  and  _415
REMARK  174  A    between atoms: _415  and  _416
REMARK  175  A    between atoms: _421  and  _423
REMARK  176  A    between atoms: _423  and  _424
REMARK  177  A    between atoms: _426  and  _428
REMARK  178  A    between atoms: _428  and  _429
REMARK  179  A    between atoms: _428  and  _431
REMARK  180  A    between atoms: _431  and  _432
REMARK  181  A    between atoms: _434  and  _436
REMARK  182  A    between atoms: _436  and  _437
REMARK  183  A    between atoms: _436  and  _439
REMARK  184  A    between atoms: _439  and  _440
REMARK  185  A    between atoms: _440  and  _441
REMARK  186  A    between atoms: _441  and  _442
REMARK  187  A    between atoms: _451  and  _453
REMARK  188  A    between atoms: _453  and  _454
REMARK  189  A    between atoms: _453  and  _456
REMARK  190  A    between atoms: _456  and  _457
REMARK  191  A    between atoms: _457  and  _458
REMARK  192  A    between atoms: _460  and  _462
REMARK  193  A    between atoms: _462  and  _463
REMARK  194  A    between atoms: _462  and  _465
REMARK  195  A    between atoms: _465  and  _466
REMARK  196  A    between atoms: _469  and  _471
REMARK  197  A    between atoms: _471  and  _472
REMARK  198  A    between atoms: _471  and  _474
REMARK  199  A    between atoms: _474  and  _475
REMARK  200  A    between atoms: _480  and  _482
REMARK  201  A    between atoms: _482  and  _483
REMARK  202  A    between atoms: _485  and  _487
REMARK  203  A    between atoms: _487  and  _488
REMARK  204  A    between atoms: _487  and  _490
REMARK  205  A    between atoms: _490  and  _491
REMARK  206  A    between atoms: _493  and  _495
REMARK  207  A    between atoms: _495  and  _496
REMARK  208  A    between atoms: _495  and  _498
REMARK  209  A    between atoms: _498  and  _499
REMARK  210  A    between atoms: _499  and  _500
REMARK  211  A    between atoms: _502  and  _504
REMARK  212  A    between atoms: _504  and  _505
REMARK  213  A    between atoms: _504  and  _507
REMARK  214  A    between atoms: _507  and  _508
REMARK  215  A    between atoms: _508  and  _509
REMARK  216  A    between atoms: _509  and  _510
REMARK  217  A    between atoms: _520  and  _521
REMARK  218  A    between atoms: _526  and  _528
REMARK  219  A    between atoms: _528  and  _529
REMARK  220  A    between atoms: _528  and  _531
REMARK  221  A    between atoms: _531  and  _532
REMARK  222  A    between atoms: _537  and  _538
REMARK  223  A    between atoms: _540  and  _542
REMARK  224  A    between atoms: _542  and  _543
REMARK  225  A    between atoms: _542  and  _545
REMARK  226  A    between atoms: _545  and  _546
REMARK  227  A    between atoms: _549  and  _551
REMARK  228  A    between atoms: _551  and  _552
REMARK  229  A    between atoms: _551  and  _554
REMARK  230  A    between atoms: _554  and  _555
REMARK  231  A    between atoms: _561  and  _563
REMARK  232  A    between atoms: _563  and  _564
REMARK  233  A    between atoms: _563  and  _566
REMARK  234  A    between atoms: _566  and  _567
REMARK  235  A    between atoms: _570  and  _572
REMARK  236  A    between atoms: _572  and  _573
REMARK  237  A    between atoms: _576  and  _578
REMARK  238  A    between atoms: _578  and  _579
REMARK  239  A    between atoms: _578  and  _581
REMARK  240  A    between atoms: _581  and  _582
REMARK                            x       y       z     vdW  Elec       q    Type
REMARK                         _______ _______ _______ _____ _____    ______ ____
ROOT
ATOM      1  O   HOH     1      11.327   9.455  39.134  0.00  0.00    +0.000 OA
ENDROOT
TORSDOF 0
REMARK  Name = ../refined-set-2016/2w8j/2w8j_pocket.pdb
REMARK  240 active torsions:
REMARK  status: ('A' for Active; 'I' for Inactive)
REMARK    1  A    between atoms: _1  and  _3
REMARK    2  A    between atoms: _3  and  _4
REMARK    3  A    between atoms: _3  and  _6
REMARK    4  A    between atoms: _6  and  _7
REMARK    5  A    between atoms: _10  and  _12
REMARK    6  A    between atoms: _12  and  _13
REMARK    7  A    between atoms: _12  and  _15
REMARK    8  A    between atoms: _15  and  _16
REMARK    9  A    between atoms: _21  and  _22
REMARK   10  A    between atoms: _24  and  _26
REMARK   11  A    between atoms: _26  and  _27
REMARK   12  A    between atoms: _26  and  _29
REMARK   13  A    between atoms: _29  and  _30
REMARK   14  A    between atoms: _35  and  _36
REMARK   15  A    between atoms: _38  and  _40
REMARK   16  A    between atoms: _40  and  _41
REMARK   17  A    between atoms: _40  and  _43
REMARK   18  A    between atoms: _43  and  _44
REMARK   19  A    between atoms: _46  and  _48
REMARK   20  A    between atoms: _48  and  _49
REMARK   21  A    between atoms: _48  and  _51
REMARK   22  A    between atoms: _51  and  _52
REMARK   23  A    between atoms: _55  and  _57
REMARK   24  A    between atoms: _57  and  _58
REMARK   25  A    between atoms: _60  and  _62
REMARK   26  A    between atoms: _62  and  _63
REMARK   27  A    between atoms: _62  and  _65
REMARK   28  A    between atoms: _65  and  _66
REMARK   29  A    between atoms: _71  and  _72
REMARK   30  A    between atoms: _74  and  _76
REMARK   31  A    between atoms: _76  and  _77
REMARK   32  A    between atoms: _76  and  _79
REMARK   33  A    between atoms: _79  and  _80
REMARK   34  A    between atoms: _80  and  _81
REMARK   35  A    between atoms: _83  and  _85
REMARK   36  A    between atoms: _85  and  _86
REMARK   37  A    between atoms: _89  and  _91
REMARK   38  A    between atoms: _91  and  _92
REMARK   39  A    between atoms: _91  and  _94
REMARK   40  A    between atoms: _94  and  _95
REMARK   41  A    between atoms: _100  and  _102
REMARK   42  A    between atoms: _102  and  _103
REMARK   43  A    between atoms: _102  and  _105
REMARK   44  A    between atoms: _105  and  _106
REMARK   45  A    between atoms: _109  and  _111
REMARK   46  A    between atoms: _111  and  _112
REMARK   47  A    between atoms: _111  and  _114
REMARK   48  A    between atoms: _114  and  _115
REMARK   49  A    between atoms: _117  and  _119
REMARK   50  A    between atoms: _119  and  _120
REMARK   51  A    between atoms: _119  and  _122
REMARK   52  A    between atoms: _122  and  _123
REMARK   53  A    between atoms: _128  and  _130
REMARK   54  A    between atoms: _130  and  _131
REMARK   55  A    between atoms: _134  and  _136
REMARK   56  A    between atoms: _136  and  _137
REMARK   57  A    between atoms: _136  and  _139
REMARK   58  A    between atoms: _139  and  _140
REMARK   59  A    between atoms: _142  and  _144
REMARK   60  A    between atoms: _144  and  _145
REMARK   61  A    between atoms: _144  and  _147
REMARK   62  A    between atoms: _147  and  _148
REMARK   63  A    between atoms: _151  and  _153
REMARK   64  A    between atoms: _153  and  _154
REMARK   65  A    between atoms: _153  and  _156
REMARK   66  A    between atoms: _156  and  _157
REMARK   67  A    between atoms: _160  and  _162
REMARK   68  A    between atoms: _162  and  _163
REMARK   69  A    between atoms: _162  and  _165
REMARK   70  A    between atoms: _165  and  _166
REMARK   71  A    between atoms: _166  and  _167
REMARK   72  A    between atoms: _170  and  _172
REMARK   73  A    between atoms: _172  and  _173
REMARK   74  A    between atoms: _175  and  _177
REMARK   75  A    between atoms: _177  and  _178
REMARK   76  A    between atoms: _177  and  _180
REMARK   77  A    between atoms: _183  and  _185
REMARK   78  A    between atoms: _185  and  _186
REMARK   79  A    between atoms: _185  and  _188
REMARK   80  A    between atoms: _188  and  _189
REMARK   81  A    between atoms: _194  and  _195
REMARK   82  A    between atoms: _197  and  _199
REMARK   83  A    between atoms: _199  and  _200
REMARK   84  A    between atoms: _199  and  _202
REMARK   85  A    between atoms: _202  and  _203
REMARK   86  A    between atoms: _205  and  _207
REMARK   87  A    between atoms: _207  and  _208
REMARK   88  A    between atoms: _207  and  _210
REMARK   89  A    between atoms: _210  and  _211
REMARK   90  A    between atoms: _211  and  _212
REMARK   91  A    between atoms: _214  and  _216
REMARK   92  A    between atoms: _216  and  _217
REMARK   93  A    between atoms: _216  and  _219
REMARK   94  A    between atoms: _219  and  _220
REMARK   95  A    between atoms: _223  and  _225
REMARK   96  A    between atoms: _225  and  _226
REMARK   97  A    between atoms: _225  and  _228
REMARK   98  A    between atoms: _228  and  _229
REMARK   99  A    between atoms: _229  and  _230
REMARK  100  A    between atoms: _233  and  _235
REMARK  101  A    between atoms: _235  and  _236
REMARK  102  A    between atoms: _239  and  _241
REMARK  103  A    between atoms: _241  and  _242
REMARK  104  A    between atoms: _241  and  _244
REMARK  105  A    between atoms: _244  and  _245
REMARK  106  A    between atoms: _250  and  _252
REMARK  107  A    between atoms: _252  and  _253
REMARK  108  A    between atoms: _252  and  _255
REMARK  109  A    between atoms: _255  and  _256
REMARK  110  A    between atoms: _258  and  _260
REMARK  111  A    between atoms: _260  and  _261
REMARK  112  A    between atoms: _260  and  _263
REMARK  113  A    between atoms: _266  and  _268
REMARK  114  A    between atoms: _268  and  _269
REMARK  115  A    between atoms: _271  and  _273
REMARK  116  A    between atoms: _273  and  _274
REMARK  117  A    between atoms: _273  and  _276
REMARK  118  A    between atoms: _276  and  _277
REMARK  119  A    between atoms: _280  and  _282
REMARK  120  A    between atoms: _282  and  _283
REMARK  121  A    between atoms: _282  and  _285
REMARK  122  A    between atoms: _285  and  _286
REMARK  123  A    between atoms: _292  and  _294
REMARK  124  A    between atoms: _294  and  _295
REMARK  125  A    between atoms: _294  and  _297
REMARK  126  A    between atoms: _297  and  _298
REMARK  127  A    between atoms: _300  and  _302
REMARK  128  A    between atoms: _302  and  _303
REMARK  129  A    between atoms: _302  and  _305
REMARK  130  A    between atoms: _305  and  _306
REMARK  131  A    between atoms: _306  and  _307
REMARK  132  A    between atoms: _307  and  _308
REMARK  133  A    between atoms: _308  and  _309
REMARK  134  A    between atoms: _313  and  _315
REMARK  135  A    between atoms: _315  and  _316
REMARK  136  A    between atoms: _315  and  _318
REMARK  137  A    between atoms: _318  and  _319
REMARK  138  A    between atoms: _322  and  _324
REMARK  139  A    between atoms: _324  and  _325
REMARK  140  A    between atoms: _324  and  _327
REMARK  141  A    between atoms: _330  and  _332
REMARK  142  A    between atoms: _332  and  _333
REMARK  143  A    between atoms: _335  and  _337
REMARK  144  A    between atoms: _337  and  _338
REMARK  145  A    between atoms: _340  and  _342
REMARK  146  A    between atoms: _342  and  _343
REMARK  147  A    between atoms: _342  and  _345
REMARK  148  A    between atoms: _345  and  _346
REMARK  149  A    between atoms: _352  and  _354
REMARK  150  A    between atoms: _354  and  _355
REMARK  151  A    between atoms: _354  and  _357
REMARK  152  A    between atoms: _357  and  _358
REMARK  153  A    between atoms: _361  and  _363
REMARK  154  A    between atoms: _363  and  _364
REMARK  155  A    between atoms: _363  and  _366
REMARK  156  A    between atoms: _366  and  _367
REMARK  157  A    between atoms: _367  and  _368
REMARK  158  A    between atoms: _368  and  _369
REMARK  159  A    between atoms: _378  and  _380
REMARK  160  A    between atoms: _380  and  _381
REMARK  161  A    between atoms: _384  and  _386
REMARK  162  A    between atoms: _386  and  _387
REMARK  163  A    between atoms: _386  and  _389
REMARK  164  A    between atoms: _389  and  _390
REMARK  165  A    between atoms: _390  and  _391
REMARK  166  A    between atoms: _391  and  _392
REMARK  167  A    between atoms: _401  and  _403
REMARK  168  A    between atoms: _403  and  _404
REMARK  169  A    between atoms: _403  and  _406
REMARK  170  A    between atoms: _406  and  _407
REMARK  171  A    between atoms: _410  and  _412
REMARK  172  A    between atoms: _412  and  _413
REMARK  173  A    between atoms: _412  and  _415
REMARK  174  A    between atoms: _415  and  _416
REMARK  175  A    between atoms: _421  and  _423
REMARK  176  A    between atoms: _423  and  _424
REMARK  177  A    between atoms: _426  and  _428
REMARK  178  A    between atoms: _428  and  _429
REMARK  179  A    between atoms: _428  and  _431
REMARK  180  A    between atoms: _431  and  _432
REMARK  181  A    between atoms: _434  and  _436
REMARK  182  A    between atoms: _436  and  _437
REMARK  183  A    between atoms: _436  and  _439
REMARK  184  A    between atoms: _439  and  _440
REMARK  185  A    between atoms: _440  and  _441
REMARK  186  A    between atoms: _441  and  _442
REMARK  187  A    between atoms: _451  and  _453
REMARK  188  A    between atoms: _453  and  _454
REMARK  189  A    between atoms: _453  and  _456
REMARK  190  A    between atoms: _456  and  _457
REMARK  191  A    between atoms: _457  and  _458
REMARK  192  A    between atoms: _460  and  _462
REMARK  193  A    between atoms: _462  and  _463
REMARK  194  A    between atoms: _462  and  _465
REMARK  195  A    between atoms: _465  and  _466
REMARK  196  A    between atoms: _469  and  _471
REMARK  197  A    between atoms: _471  and  _472
REMARK  198  A    between atoms: _471  and  _474
REMARK  199  A    between atoms: _474  and  _475
REMARK  200  A    between atoms: _480  and  _482
REMARK  201  A    between atoms: _482  and  _483
REMARK  202  A    between atoms: _485  and  _487
REMARK  203  A    between atoms: _487  and  _488
REMARK  204  A    between atoms: _487  and  _490
REMARK  205  A    between atoms: _490  and  _491
REMARK  206  A    between atoms: _493  and  _495
REMARK  207  A    between atoms: _495  and  _496
REMARK  208  A    between atoms: _495  and  _498
REMARK  209  A    between atoms: _498  and  _499
REMARK  210  A    between atoms: _499  and  _500
REMARK  211  A    between atoms: _502  and  _504
REMARK  212  A    between atoms: _504  and  _505
REMARK  213  A    between atoms: _504  and  _507
REMARK  214  A    between atoms: _507  and  _508
REMARK  215  A    between atoms: _508  and  _509
REMARK  216  A    between atoms: _509  and  _510
REMARK  217  A    between atoms: _520  and  _521
REMARK  218  A    between atoms: _526  and  _528
REMARK  219  A    between atoms: _528  and  _529
REMARK  220  A    between atoms: _528  and  _531
REMARK  221  A    between atoms: _531  and  _532
REMARK  222  A    between atoms: _537  and  _538
REMARK  223  A    between atoms: _540  and  _542
REMARK  224  A    between atoms: _542  and  _543
REMARK  225  A    between atoms: _542  and  _545
REMARK  226  A    between atoms: _545  and  _546
REMARK  227  A    between atoms: _549  and  _551
REMARK  228  A    between atoms: _551  and  _552
REMARK  229  A    between atoms: _551  and  _554
REMARK  230  A    between atoms: _554  and  _555
REMARK  231  A    between atoms: _561  and  _563
REMARK  232  A    between atoms: _563  and  _564
REMARK  233  A    between atoms: _563  and  _566
REMARK  234  A    between atoms: _566  and  _567
REMARK  235  A    between atoms: _570  and  _572
REMARK  236  A    between atoms: _572  and  _573
REMARK  237  A    between atoms: _576  and  _578
REMARK  238  A    between atoms: _578  and  _579
REMARK  239  A    between atoms: _578  and  _581
REMARK  240  A    between atoms: _581  and  _582
REMARK                            x       y       z     vdW  Elec       q    Type
REMARK                         _______ _______ _______ _____ _____    ______ ____
ROOT
ATOM      1  O   HOH     1      15.305  14.823  33.053  0.00  0.00    +0.000 OA
ENDROOT
TORSDOF 0
REMARK  Name = ../refined-set-2016/2w8j/2w8j_pocket.pdb
REMARK  240 active torsions:
REMARK  status: ('A' for Active; 'I' for Inactive)
REMARK    1  A    between atoms: _1  and  _3
REMARK    2  A    between atoms: _3  and  _4
REMARK    3  A    between atoms: _3  and  _6
REMARK    4  A    between atoms: _6  and  _7
REMARK    5  A    between atoms: _10  and  _12
REMARK    6  A    between atoms: _12  and  _13
REMARK    7  A    between atoms: _12  and  _15
REMARK    8  A    between atoms: _15  and  _16
REMARK    9  A    between atoms: _21  and  _22
REMARK   10  A    between atoms: _24  and  _26
REMARK   11  A    between atoms: _26  and  _27
REMARK   12  A    between atoms: _26  and  _29
REMARK   13  A    between atoms: _29  and  _30
REMARK   14  A    between atoms: _35  and  _36
REMARK   15  A    between atoms: _38  and  _40
REMARK   16  A    between atoms: _40  and  _41
REMARK   17  A    between atoms: _40  and  _43
REMARK   18  A    between atoms: _43  and  _44
REMARK   19  A    between atoms: _46  and  _48
REMARK   20  A    between atoms: _48  and  _49
REMARK   21  A    between atoms: _48  and  _51
REMARK   22  A    between atoms: _51  and  _52
REMARK   23  A    between atoms: _55  and  _57
REMARK   24  A    between atoms: _57  and  _58
REMARK   25  A    between atoms: _60  and  _62
REMARK   26  A    between atoms: _62  and  _63
REMARK   27  A    between atoms: _62  and  _65
REMARK   28  A    between atoms: _65  and  _66
REMARK   29  A    between atoms: _71  and  _72
REMARK   30  A    between atoms: _74  and  _76
REMARK   31  A    between atoms: _76  and  _77
REMARK   32  A    between atoms: _76  and  _79
REMARK   33  A    between atoms: _79  and  _80
REMARK   34  A    between atoms: _80  and  _81
REMARK   35  A    between atoms: _83  and  _85
REMARK   36  A    between atoms: _85  and  _86
REMARK   37  A    between atoms: _89  and  _91
REMARK   38  A    between atoms: _91  and  _92
REMARK   39  A    between atoms: _91  and  _94
REMARK   40  A    between atoms: _94  and  _95
REMARK   41  A    between atoms: _100  and  _102
REMARK   42  A    between atoms: _102  and  _103
REMARK   43  A    between atoms: _102  and  _105
REMARK   44  A    between atoms: _105  and  _106
REMARK   45  A    between atoms: _109  and  _111
REMARK   46  A    between atoms: _111  and  _112
REMARK   47  A    between atoms: _111  and  _114
REMARK   48  A    between atoms: _114  and  _115
REMARK   49  A    between atoms: _117  and  _119
REMARK   50  A    between atoms: _119  and  _120
REMARK   51  A    between atoms: _119  and  _122
REMARK   52  A    between atoms: _122  and  _123
REMARK   53  A    between atoms: _128  and  _130
REMARK   54  A    between atoms: _130  and  _131
REMARK   55  A    between atoms: _134  and  _136
REMARK   56  A    between atoms: _136  and  _137
REMARK   57  A    between atoms: _136  and  _139
REMARK   58  A    between atoms: _139  and  _140
REMARK   59  A    between atoms: _142  and  _144
REMARK   60  A    between atoms: _144  and  _145
REMARK   61  A    between atoms: _144  and  _147
REMARK   62  A    between atoms: _147  and  _148
REMARK   63  A    between atoms: _151  and  _153
REMARK   64  A    between atoms: _153  and  _154
REMARK   65  A    between atoms: _153  and  _156
REMARK   66  A    between atoms: _156  and  _157
REMARK   67  A    between atoms: _160  and  _162
REMARK   68  A    between atoms: _162  and  _163
REMARK   69  A    between atoms: _162  and  _165
REMARK   70  A    between atoms: _165  and  _166
REMARK   71  A    between atoms: _166  and  _167
REMARK   72  A    between atoms: _170  and  _172
REMARK   73  A    between atoms: _172  and  _173
REMARK   74  A    between atoms: _175  and  _177
REMARK   75  A    between atoms: _177  and  _178
REMARK   76  A    between atoms: _177  and  _180
REMARK   77  A    between atoms: _183  and  _185
REMARK   78  A    between atoms: _185  and  _186
REMARK   79  A    between atoms: _185  and  _188
REMARK   80  A    between atoms: _188  and  _189
REMARK   81  A    between atoms: _194  and  _195
REMARK   82  A    between atoms: _197  and  _199
REMARK   83  A    between atoms: _199  and  _200
REMARK   84  A    between atoms: _199  and  _202
REMARK   85  A    between atoms: _202  and  _203
REMARK   86  A    between atoms: _205  and  _207
REMARK   87  A    between atoms: _207  and  _208
REMARK   88  A    between atoms: _207  and  _210
REMARK   89  A    between atoms: _210  and  _211
REMARK   90  A    between atoms: _211  and  _212
REMARK   91  A    between atoms: _214  and  _216
REMARK   92  A    between atoms: _216  and  _217
REMARK   93  A    between atoms: _216  and  _219
REMARK   94  A    between atoms: _219  and  _220
REMARK   95  A    between atoms: _223  and  _225
REMARK   96  A    between atoms: _225  and  _226
REMARK   97  A    between atoms: _225  and  _228
REMARK   98  A    between atoms: _228  and  _229
REMARK   99  A    between atoms: _229  and  _230
REMARK  100  A    between atoms: _233  and  _235
REMARK  101  A    between atoms: _235  and  _236
REMARK  102  A    between atoms: _239  and  _241
REMARK  103  A    between atoms: _241  and  _242
REMARK  104  A    between atoms: _241  and  _244
REMARK  105  A    between atoms: _244  and  _245
REMARK  106  A    between atoms: _250  and  _252
REMARK  107  A    between atoms: _252  and  _253
REMARK  108  A    between atoms: _252  and  _255
REMARK  109  A    between atoms: _255  and  _256
REMARK  110  A    between atoms: _258  and  _260
REMARK  111  A    between atoms: _260  and  _261
REMARK  112  A    between atoms: _260  and  _263
REMARK  113  A    between atoms: _266  and  _268
REMARK  114  A    between atoms: _268  and  _269
REMARK  115  A    between atoms: _271  and  _273
REMARK  116  A    between atoms: _273  and  _274
REMARK  117  A    between atoms: _273  and  _276
REMARK  118  A    between atoms: _276  and  _277
REMARK  119  A    between atoms: _280  and  _282
REMARK  120  A    between atoms: _282  and  _283
REMARK  121  A    between atoms: _282  and  _285
REMARK  122  A    between atoms: _285  and  _286
REMARK  123  A    between atoms: _292  and  _294
REMARK  124  A    between atoms: _294  and  _295
REMARK  125  A    between atoms: _294  and  _297
REMARK  126  A    between atoms: _297  and  _298
REMARK  127  A    between atoms: _300  and  _302
REMARK  128  A    between atoms: _302  and  _303
REMARK  129  A    between atoms: _302  and  _305
REMARK  130  A    between atoms: _305  and  _306
REMARK  131  A    between atoms: _306  and  _307
REMARK  132  A    between atoms: _307  and  _308
REMARK  133  A    between atoms: _308  and  _309
REMARK  134  A    between atoms: _313  and  _315
REMARK  135  A    between atoms: _315  and  _316
REMARK  136  A    between atoms: _315  and  _318
REMARK  137  A    between atoms: _318  and  _319
REMARK  138  A    between atoms: _322  and  _324
REMARK  139  A    between atoms: _324  and  _325
REMARK  140  A    between atoms: _324  and  _327
REMARK  141  A    between atoms: _330  and  _332
REMARK  142  A    between atoms: _332  and  _333
REMARK  143  A    between atoms: _335  and  _337
REMARK  144  A    between atoms: _337  and  _338
REMARK  145  A    between atoms: _340  and  _342
REMARK  146  A    between atoms: _342  and  _343
REMARK  147  A    between atoms: _342  and  _345
REMARK  148  A    between atoms: _345  and  _346
REMARK  149  A    between atoms: _352  and  _354
REMARK  150  A    between atoms: _354  and  _355
REMARK  151  A    between atoms: _354  and  _357
REMARK  152  A    between atoms: _357  and  _358
REMARK  153  A    between atoms: _361  and  _363
REMARK  154  A    between atoms: _363  and  _364
REMARK  155  A    between atoms: _363  and  _366
REMARK  156  A    between atoms: _366  and  _367
REMARK  157  A    between atoms: _367  and  _368
REMARK  158  A    between atoms: _368  and  _369
REMARK  159  A    between atoms: _378  and  _380
REMARK  160  A    between atoms: _380  and  _381
REMARK  161  A    between atoms: _384  and  _386
REMARK  162  A    between atoms: _386  and  _387
REMARK  163  A    between atoms: _386  and  _389
REMARK  164  A    between atoms: _389  and  _390
REMARK  165  A    between atoms: _390  and  _391
REMARK  166  A    between atoms: _391  and  _392
REMARK  167  A    between atoms: _401  and  _403
REMARK  168  A    between atoms: _403  and  _404
REMARK  169  A    between atoms: _403  and  _406
REMARK  170  A    between atoms: _406  and  _407
REMARK  171  A    between atoms: _410  and  _412
REMARK  172  A    between atoms: _412  and  _413
REMARK  173  A    between atoms: _412  and  _415
REMARK  174  A    between atoms: _415  and  _416
REMARK  175  A    between atoms: _421  and  _423
REMARK  176  A    between atoms: _423  and  _424
REMARK  177  A    between atoms: _426  and  _428
REMARK  178  A    between atoms: _428  and  _429
REMARK  179  A    between atoms: _428  and  _431
REMARK  180  A    between atoms: _431  and  _432
REMARK  181  A    between atoms: _434  and  _436
REMARK  182  A    between atoms: _436  and  _437
REMARK  183  A    between atoms: _436  and  _439
REMARK  184  A    between atoms: _439  and  _440
REMARK  185  A    between atoms: _440  and  _441
REMARK  186  A    between atoms: _441  and  _442
REMARK  187  A    between atoms: _451  and  _453
REMARK  188  A    between atoms: _453  and  _454
REMARK  189  A    between atoms: _453  and  _456
REMARK  190  A    between atoms: _456  and  _457
REMARK  191  A    between atoms: _457  and  _458
REMARK  192  A    between atoms: _460  and  _462
REMARK  193  A    between atoms: _462  and  _463
REMARK  194  A    between atoms: _462  and  _465
REMARK  195  A    between atoms: _465  and  _466
REMARK  196  A    between atoms: _469  and  _471
REMARK  197  A    between atoms: _471  and  _472
REMARK  198  A    between atoms: _471  and  _474
REMARK  199  A    between atoms: _474  and  _475
REMARK  200  A    between atoms: _480  and  _482
REMARK  201  A    between atoms: _482  and  _483
REMARK  202  A    between atoms: _485  and  _487
REMARK  203  A    between atoms: _487  and  _488
REMARK  204  A    between atoms: _487  and  _490
REMARK  205  A    between atoms: _490  and  _491
REMARK  206  A    between atoms: _493  and  _495
REMARK  207  A    between atoms: _495  and  _496
REMARK  208  A    between atoms: _495  and  _498
REMARK  209  A    between atoms: _498  and  _499
REMARK  210  A    between atoms: _499  and  _500
REMARK  211  A    between atoms: _502  and  _504
REMARK  212  A    between atoms: _504  and  _505
REMARK  213  A    between atoms: _504  and  _507
REMARK  214  A    between atoms: _507  and  _508
REMARK  215  A    between atoms: _508  and  _509
REMARK  216  A    between atoms: _509  and  _510
REMARK  217  A    between atoms: _520  and  _521
REMARK  218  A    between atoms: _526  and  _528
REMARK  219  A    between atoms: _528  and  _529
REMARK  220  A    between atoms: _528  and  _531
REMARK  221  A    between atoms: _531  and  _532
REMARK  222  A    between atoms: _537  and  _538
REMARK  223  A    between atoms: _540  and  _542
REMARK  224  A    between atoms: _542  and  _543
REMARK  225  A    between atoms: _542  and  _545
REMARK  226  A    between atoms: _545  and  _546
REMARK  227  A    between atoms: _549  and  _551
REMARK  228  A    between atoms: _551  and  _552
REMARK  229  A    between atoms: _551  and  _554
REMARK  230  A    between atoms: _554  and  _555
REMARK  231  A    between atoms: _561  and  _563
REMARK  232  A    between atoms: _563  and  _564
REMARK  233  A    between atoms: _563  and  _566
REMARK  234  A    between atoms: _566  and  _567
REMARK  235  A    between atoms: _570  and  _572
REMARK  236  A    between atoms: _572  and  _573
REMARK  237  A    between atoms: _576  and  _578
REMARK  238  A    between atoms: _578  and  _579
REMARK  239  A    between atoms: _578  and  _581
REMARK  240  A    between atoms: _581  and  _582
REMARK                            x       y       z     vdW  Elec       q    Type
REMARK                         _______ _______ _______ _____ _____    ______ ____
ROOT
ATOM      1  O   HOH     1      14.042  19.622  27.978  0.00  0.00    +0.000 OA
ENDROOT
TORSDOF 0
REMARK  Name = ../refined-set-2016/2w8j/2w8j_pocket.pdb
REMARK  240 active torsions:
REMARK  status: ('A' for Active; 'I' for Inactive)
REMARK    1  A    between atoms: _1  and  _3
REMARK    2  A    between atoms: _3  and  _4
REMARK    3  A    between atoms: _3  and  _6
REMARK    4  A    between atoms: _6  and  _7
REMARK    5  A    between atoms: _10  and  _12
REMARK    6  A    between atoms: _12  and  _13
REMARK    7  A    between atoms: _12  and  _15
REMARK    8  A    between atoms: _15  and  _16
REMARK    9  A    between atoms: _21  and  _22
REMARK   10  A    between atoms: _24  and  _26
REMARK   11  A    between atoms: _26  and  _27
REMARK   12  A    between atoms: _26  and  _29
REMARK   13  A    between atoms: _29  and  _30
REMARK   14  A    between atoms: _35  and  _36
REMARK   15  A    between atoms: _38  and  _40
REMARK   16  A    between atoms: _40  and  _41
REMARK   17  A    between atoms: _40  and  _43
REMARK   18  A    between atoms: _43  and  _44
REMARK   19  A    between atoms: _46  and  _48
REMARK   20  A    between atoms: _48  and  _49
REMARK   21  A    between atoms: _48  and  _51
REMARK   22  A    between atoms: _51  and  _52
REMARK   23  A    between atoms: _55  and  _57
REMARK   24  A    between atoms: _57  and  _58
REMARK   25  A    between atoms: _60  and  _62
REMARK   26  A    between atoms: _62  and  _63
REMARK   27  A    between atoms: _62  and  _65
REMARK   28  A    between atoms: _65  and  _66
REMARK   29  A    between atoms: _71  and  _72
REMARK   30  A    between atoms: _74  and  _76
REMARK   31  A    between atoms: _76  and  _77
REMARK   32  A    between atoms: _76  and  _79
REMARK   33  A    between atoms: _79  and  _80
REMARK   34  A    between atoms: _80  and  _81
REMARK   35  A    between atoms: _83  and  _85
REMARK   36  A    between atoms: _85  and  _86
REMARK   37  A    between atoms: _89  and  _91
REMARK   38  A    between atoms: _91  and  _92
REMARK   39  A    between atoms: _91  and  _94
REMARK   40  A    between atoms: _94  and  _95
REMARK   41  A    between atoms: _100  and  _102
REMARK   42  A    between atoms: _102  and  _103
REMARK   43  A    between atoms: _102  and  _105
REMARK   44  A    between atoms: _105  and  _106
REMARK   45  A    between atoms: _109  and  _111
REMARK   46  A    between atoms: _111  and  _112
REMARK   47  A    between atoms: _111  and  _114
REMARK   48  A    between atoms: _114  and  _115
REMARK   49  A    between atoms: _117  and  _119
REMARK   50  A    between atoms: _119  and  _120
REMARK   51  A    between atoms: _119  and  _122
REMARK   52  A    between atoms: _122  and  _123
REMARK   53  A    between atoms: _128  and  _130
REMARK   54  A    between atoms: _130  and  _131
REMARK   55  A    between atoms: _134  and  _136
REMARK   56  A    between atoms: _136  and  _137
REMARK   57  A    between atoms: _136  and  _139
REMARK   58  A    between atoms: _139  and  _140
REMARK   59  A    between atoms: _142  and  _144
REMARK   60  A    between atoms: _144  and  _145
REMARK   61  A    between atoms: _144  and  _147
REMARK   62  A    between atoms: _147  and  _148
REMARK   63  A    between atoms: _151  and  _153
REMARK   64  A    between atoms: _153  and  _154
REMARK   65  A    between atoms: _153  and  _156
REMARK   66  A    between atoms: _156  and  _157
REMARK   67  A    between atoms: _160  and  _162
REMARK   68  A    between atoms: _162  and  _163
REMARK   69  A    between atoms: _162  and  _165
REMARK   70  A    between atoms: _165  and  _166
REMARK   71  A    between atoms: _166  and  _167
REMARK   72  A    between atoms: _170  and  _172
REMARK   73  A    between atoms: _172  and  _173
REMARK   74  A    between atoms: _175  and  _177
REMARK   75  A    between atoms: _177  and  _178
REMARK   76  A    between atoms: _177  and  _180
REMARK   77  A    between atoms: _183  and  _185
REMARK   78  A    between atoms: _185  and  _186
REMARK   79  A    between atoms: _185  and  _188
REMARK   80  A    between atoms: _188  and  _189
REMARK   81  A    between atoms: _194  and  _195
REMARK   82  A    between atoms: _197  and  _199
REMARK   83  A    between atoms: _199  and  _200
REMARK   84  A    between atoms: _199  and  _202
REMARK   85  A    between atoms: _202  and  _203
REMARK   86  A    between atoms: _205  and  _207
REMARK   87  A    between atoms: _207  and  _208
REMARK   88  A    between atoms: _207  and  _210
REMARK   89  A    between atoms: _210  and  _211
REMARK   90  A    between atoms: _211  and  _212
REMARK   91  A    between atoms: _214  and  _216
REMARK   92  A    between atoms: _216  and  _217
REMARK   93  A    between atoms: _216  and  _219
REMARK   94  A    between atoms: _219  and  _220
REMARK   95  A    between atoms: _223  and  _225
REMARK   96  A    between atoms: _225  and  _226
REMARK   97  A    between atoms: _225  and  _228
REMARK   98  A    between atoms: _228  and  _229
REMARK   99  A    between atoms: _229  and  _230
REMARK  100  A    between atoms: _233  and  _235
REMARK  101  A    between atoms: _235  and  _236
REMARK  102  A    between atoms: _239  and  _241
REMARK  103  A    between atoms: _241  and  _242
REMARK  104  A    between atoms: _241  and  _244
REMARK  105  A    between atoms: _244  and  _245
REMARK  106  A    between atoms: _250  and  _252
REMARK  107  A    between atoms: _252  and  _253
REMARK  108  A    between atoms: _252  and  _255
REMARK  109  A    between atoms: _255  and  _256
REMARK  110  A    between atoms: _258  and  _260
REMARK  111  A    between atoms: _260  and  _261
REMARK  112  A    between atoms: _260  and  _263
REMARK  113  A    between atoms: _266  and  _268
REMARK  114  A    between atoms: _268  and  _269
REMARK  115  A    between atoms: _271  and  _273
REMARK  116  A    between atoms: _273  and  _274
REMARK  117  A    between atoms: _273  and  _276
REMARK  118  A    between atoms: _276  and  _277
REMARK  119  A    between atoms: _280  and  _282
REMARK  120  A    between atoms: _282  and  _283
REMARK  121  A    between atoms: _282  and  _285
REMARK  122  A    between atoms: _285  and  _286
REMARK  123  A    between atoms: _292  and  _294
REMARK  124  A    between atoms: _294  and  _295
REMARK  125  A    between atoms: _294  and  _297
REMARK  126  A    between atoms: _297  and  _298
REMARK  127  A    between atoms: _300  and  _302
REMARK  128  A    between atoms: _302  and  _303
REMARK  129  A    between atoms: _302  and  _305
REMARK  130  A    between atoms: _305  and  _306
REMARK  131  A    between atoms: _306  and  _307
REMARK  132  A    between atoms: _307  and  _308
REMARK  133  A    between atoms: _308  and  _309
REMARK  134  A    between atoms: _313  and  _315
REMARK  135  A    between atoms: _315  and  _316
REMARK  136  A    between atoms: _315  and  _318
REMARK  137  A    between atoms: _318  and  _319
REMARK  138  A    between atoms: _322  and  _324
REMARK  139  A    between atoms: _324  and  _325
REMARK  140  A    between atoms: _324  and  _327
REMARK  141  A    between atoms: _330  and  _332
REMARK  142  A    between atoms: _332  and  _333
REMARK  143  A    between atoms: _335  and  _337
REMARK  144  A    between atoms: _337  and  _338
REMARK  145  A    between atoms: _340  and  _342
REMARK  146  A    between atoms: _342  and  _343
REMARK  147  A    between atoms: _342  and  _345
REMARK  148  A    between atoms: _345  and  _346
REMARK  149  A    between atoms: _352  and  _354
REMARK  150  A    between atoms: _354  and  _355
REMARK  151  A    between atoms: _354  and  _357
REMARK  152  A    between atoms: _357  and  _358
REMARK  153  A    between atoms: _361  and  _363
REMARK  154  A    between atoms: _363  and  _364
REMARK  155  A    between atoms: _363  and  _366
REMARK  156  A    between atoms: _366  and  _367
REMARK  157  A    between atoms: _367  and  _368
REMARK  158  A    between atoms: _368  and  _369
REMARK  159  A    between atoms: _378  and  _380
REMARK  160  A    between atoms: _380  and  _381
REMARK  161  A    between atoms: _384  and  _386
REMARK  162  A    between atoms: _386  and  _387
REMARK  163  A    between atoms: _386  and  _389
REMARK  164  A    between atoms: _389  and  _390
REMARK  165  A    between atoms: _390  and  _391
REMARK  166  A    between atoms: _391  and  _392
REMARK  167  A    between atoms: _401  and  _403
REMARK  168  A    between atoms: _403  and  _404
REMARK  169  A    between atoms: _403  and  _406
REMARK  170  A    between atoms: _406  and  _407
REMARK  171  A    between atoms: _410  and  _412
REMARK  172  A    between atoms: _412  and  _413
REMARK  173  A    between atoms: _412  and  _415
REMARK  174  A    between atoms: _415  and  _416
REMARK  175  A    between atoms: _421  and  _423
REMARK  176  A    between atoms: _423  and  _424
REMARK  177  A    between atoms: _426  and  _428
REMARK  178  A    between atoms: _428  and  _429
REMARK  179  A    between atoms: _428  and  _431
REMARK  180  A    between atoms: _431  and  _432
REMARK  181  A    between atoms: _434  and  _436
REMARK  182  A    between atoms: _436  and  _437
REMARK  183  A    between atoms: _436  and  _439
REMARK  184  A    between atoms: _439  and  _440
REMARK  185  A    between atoms: _440  and  _441
REMARK  186  A    between atoms: _441  and  _442
REMARK  187  A    between atoms: _451  and  _453
REMARK  188  A    between atoms: _453  and  _454
REMARK  189  A    between atoms: _453  and  _456
REMARK  190  A    between atoms: _456  and  _457
REMARK  191  A    between atoms: _457  and  _458
REMARK  192  A    between atoms: _460  and  _462
REMARK  193  A    between atoms: _462  and  _463
REMARK  194  A    between atoms: _462  and  _465
REMARK  195  A    between atoms: _465  and  _466
REMARK  196  A    between atoms: _469  and  _471
REMARK  197  A    between atoms: _471  and  _472
REMARK  198  A    between atoms: _471  and  _474
REMARK  199  A    between atoms: _474  and  _475
REMARK  200  A    between atoms: _480  and  _482
REMARK  201  A    between atoms: _482  and  _483
REMARK  202  A    between atoms: _485  and  _487
REMARK  203  A    between atoms: _487  and  _488
REMARK  204  A    between atoms: _487  and  _490
REMARK  205  A    between atoms: _490  and  _491
REMARK  206  A    between atoms: _493  and  _495
REMARK  207  A    between atoms: _495  and  _496
REMARK  208  A    between atoms: _495  and  _498
REMARK  209  A    between atoms: _498  and  _499
REMARK  210  A    between atoms: _499  and  _500
REMARK  211  A    between atoms: _502  and  _504
REMARK  212  A    between atoms: _504  and  _505
REMARK  213  A    between atoms: _504  and  _507
REMARK  214  A    between atoms: _507  and  _508
REMARK  215  A    between atoms: _508  and  _509
REMARK  216  A    between atoms: _509  and  _510
REMARK  217  A    between atoms: _520  and  _521
REMARK  218  A    between atoms: _526  and  _528
REMARK  219  A    between atoms: _528  and  _529
REMARK  220  A    between atoms: _528  and  _531
REMARK  221  A    between atoms: _531  and  _532
REMARK  222  A    between atoms: _537  and  _538
REMARK  223  A    between atoms: _540  and  _542
REMARK  224  A    between atoms: _542  and  _543
REMARK  225  A    between atoms: _542  and  _545
REMARK  226  A    between atoms: _545  and  _546
REMARK  227  A    between atoms: _549  and  _551
REMARK  228  A    between atoms: _551  and  _552
REMARK  229  A    between atoms: _551  and  _554
REMARK  230  A    between atoms: _554  and  _555
REMARK  231  A    between atoms: _561  and  _563
REMARK  232  A    between atoms: _563  and  _564
REMARK  233  A    between atoms: _563  and  _566
REMARK  234  A    between atoms: _566  and  _567
REMARK  235  A    between atoms: _570  and  _572
REMARK  236  A    between atoms: _572  and  _573
REMARK  237  A    between atoms: _576  and  _578
REMARK  238  A    between atoms: _578  and  _579
REMARK  239  A    between atoms: _578  and  _581
REMARK  240  A    between atoms: _581  and  _582
REMARK                            x       y       z     vdW  Elec       q    Type
REMARK                         _______ _______ _______ _____ _____    ______ ____
ROOT
ATOM      1  O   HOH     1      11.723  23.030  29.129  0.00  0.00    +0.000 OA
ENDROOT
TORSDOF 0
REMARK  Name = ../refined-set-2016/2w8j/2w8j_pocket.pdb
REMARK  240 active torsions:
REMARK  status: ('A' for Active; 'I' for Inactive)
REMARK    1  A    between atoms: _1  and  _3
REMARK    2  A    between atoms: _3  and  _4
REMARK    3  A    between atoms: _3  and  _6
REMARK    4  A    between atoms: _6  and  _7
REMARK    5  A    between atoms: _10  and  _12
REMARK    6  A    between atoms: _12  and  _13
REMARK    7  A    between atoms: _12  and  _15
REMARK    8  A    between atoms: _15  and  _16
REMARK    9  A    between atoms: _21  and  _22
REMARK   10  A    between atoms: _24  and  _26
REMARK   11  A    between atoms: _26  and  _27
REMARK   12  A    between atoms: _26  and  _29
REMARK   13  A    between atoms: _29  and  _30
REMARK   14  A    between atoms: _35  and  _36
REMARK   15  A    between atoms: _38  and  _40
REMARK   16  A    between atoms: _40  and  _41
REMARK   17  A    between atoms: _40  and  _43
REMARK   18  A    between atoms: _43  and  _44
REMARK   19  A    between atoms: _46  and  _48
REMARK   20  A    between atoms: _48  and  _49
REMARK   21  A    between atoms: _48  and  _51
REMARK   22  A    between atoms: _51  and  _52
REMARK   23  A    between atoms: _55  and  _57
REMARK   24  A    between atoms: _57  and  _58
REMARK   25  A    between atoms: _60  and  _62
REMARK   26  A    between atoms: _62  and  _63
REMARK   27  A    between atoms: _62  and  _65
REMARK   28  A    between atoms: _65  and  _66
REMARK   29  A    between atoms: _71  and  _72
REMARK   30  A    between atoms: _74  and  _76
REMARK   31  A    between atoms: _76  and  _77
REMARK   32  A    between atoms: _76  and  _79
REMARK   33  A    between atoms: _79  and  _80
REMARK   34  A    between atoms: _80  and  _81
REMARK   35  A    between atoms: _83  and  _85
REMARK   36  A    between atoms: _85  and  _86
REMARK   37  A    between atoms: _89  and  _91
REMARK   38  A    between atoms: _91  and  _92
REMARK   39  A    between atoms: _91  and  _94
REMARK   40  A    between atoms: _94  and  _95
REMARK   41  A    between atoms: _100  and  _102
REMARK   42  A    between atoms: _102  and  _103
REMARK   43  A    between atoms: _102  and  _105
REMARK   44  A    between atoms: _105  and  _106
REMARK   45  A    between atoms: _109  and  _111
REMARK   46  A    between atoms: _111  and  _112
REMARK   47  A    between atoms: _111  and  _114
REMARK   48  A    between atoms: _114  and  _115
REMARK   49  A    between atoms: _117  and  _119
REMARK   50  A    between atoms: _119  and  _120
REMARK   51  A    between atoms: _119  and  _122
REMARK   52  A    between atoms: _122  and  _123
REMARK   53  A    between atoms: _128  and  _130
REMARK   54  A    between atoms: _130  and  _131
REMARK   55  A    between atoms: _134  and  _136
REMARK   56  A    between atoms: _136  and  _137
REMARK   57  A    between atoms: _136  and  _139
REMARK   58  A    between atoms: _139  and  _140
REMARK   59  A    between atoms: _142  and  _144
REMARK   60  A    between atoms: _144  and  _145
REMARK   61  A    between atoms: _144  and  _147
REMARK   62  A    between atoms: _147  and  _148
REMARK   63  A    between atoms: _151  and  _153
REMARK   64  A    between atoms: _153  and  _154
REMARK   65  A    between atoms: _153  and  _156
REMARK   66  A    between atoms: _156  and  _157
REMARK   67  A    between atoms: _160  and  _162
REMARK   68  A    between atoms: _162  and  _163
REMARK   69  A    between atoms: _162  and  _165
REMARK   70  A    between atoms: _165  and  _166
REMARK   71  A    between atoms: _166  and  _167
REMARK   72  A    between atoms: _170  and  _172
REMARK   73  A    between atoms: _172  and  _173
REMARK   74  A    between atoms: _175  and  _177
REMARK   75  A    between atoms: _177  and  _178
REMARK   76  A    between atoms: _177  and  _180
REMARK   77  A    between atoms: _183  and  _185
REMARK   78  A    between atoms: _185  and  _186
REMARK   79  A    between atoms: _185  and  _188
REMARK   80  A    between atoms: _188  and  _189
REMARK   81  A    between atoms: _194  and  _195
REMARK   82  A    between atoms: _197  and  _199
REMARK   83  A    between atoms: _199  and  _200
REMARK   84  A    between atoms: _199  and  _202
REMARK   85  A    between atoms: _202  and  _203
REMARK   86  A    between atoms: _205  and  _207
REMARK   87  A    between atoms: _207  and  _208
REMARK   88  A    between atoms: _207  and  _210
REMARK   89  A    between atoms: _210  and  _211
REMARK   90  A    between atoms: _211  and  _212
REMARK   91  A    between atoms: _214  and  _216
REMARK   92  A    between atoms: _216  and  _217
REMARK   93  A    between atoms: _216  and  _219
REMARK   94  A    between atoms: _219  and  _220
REMARK   95  A    between atoms: _223  and  _225
REMARK   96  A    between atoms: _225  and  _226
REMARK   97  A    between atoms: _225  and  _228
REMARK   98  A    between atoms: _228  and  _229
REMARK   99  A    between atoms: _229  and  _230
REMARK  100  A    between atoms: _233  and  _235
REMARK  101  A    between atoms: _235  and  _236
REMARK  102  A    between atoms: _239  and  _241
REMARK  103  A    between atoms: _241  and  _242
REMARK  104  A    between atoms: _241  and  _244
REMARK  105  A    between atoms: _244  and  _245
REMARK  106  A    between atoms: _250  and  _252
REMARK  107  A    between atoms: _252  and  _253
REMARK  108  A    between atoms: _252  and  _255
REMARK  109  A    between atoms: _255  and  _256
REMARK  110  A    between atoms: _258  and  _260
REMARK  111  A    between atoms: _260  and  _261
REMARK  112  A    between atoms: _260  and  _263
REMARK  113  A    between atoms: _266  and  _268
REMARK  114  A    between atoms: _268  and  _269
REMARK  115  A    between atoms: _271  and  _273
REMARK  116  A    between atoms: _273  and  _274
REMARK  117  A    between atoms: _273  and  _276
REMARK  118  A    between atoms: _276  and  _277
REMARK  119  A    between atoms: _280  and  _282
REMARK  120  A    between atoms: _282  and  _283
REMARK  121  A    between atoms: _282  and  _285
REMARK  122  A    between atoms: _285  and  _286
REMARK  123  A    between atoms: _292  and  _294
REMARK  124  A    between atoms: _294  and  _295
REMARK  125  A    between atoms: _294  and  _297
REMARK  126  A    between atoms: _297  and  _298
REMARK  127  A    between atoms: _300  and  _302
REMARK  128  A    between atoms: _302  and  _303
REMARK  129  A    between atoms: _302  and  _305
REMARK  130  A    between atoms: _305  and  _306
REMARK  131  A    between atoms: _306  and  _307
REMARK  132  A    between atoms: _307  and  _308
REMARK  133  A    between atoms: _308  and  _309
REMARK  134  A    between atoms: _313  and  _315
REMARK  135  A    between atoms: _315  and  _316
REMARK  136  A    between atoms: _315  and  _318
REMARK  137  A    between atoms: _318  and  _319
REMARK  138  A    between atoms: _322  and  _324
REMARK  139  A    between atoms: _324  and  _325
REMARK  140  A    between atoms: _324  and  _327
REMARK  141  A    between atoms: _330  and  _332
REMARK  142  A    between atoms: _332  and  _333
REMARK  143  A    between atoms: _335  and  _337
REMARK  144  A    between atoms: _337  and  _338
REMARK  145  A    between atoms: _340  and  _342
REMARK  146  A    between atoms: _342  and  _343
REMARK  147  A    between atoms: _342  and  _345
REMARK  148  A    between atoms: _345  and  _346
REMARK  149  A    between atoms: _352  and  _354
REMARK  150  A    between atoms: _354  and  _355
REMARK  151  A    between atoms: _354  and  _357
REMARK  152  A    between atoms: _357  and  _358
REMARK  153  A    between atoms: _361  and  _363
REMARK  154  A    between atoms: _363  and  _364
REMARK  155  A    between atoms: _363  and  _366
REMARK  156  A    between atoms: _366  and  _367
REMARK  157  A    between atoms: _367  and  _368
REMARK  158  A    between atoms: _368  and  _369
REMARK  159  A    between atoms: _378  and  _380
REMARK  160  A    between atoms: _380  and  _381
REMARK  161  A    between atoms: _384  and  _386
REMARK  162  A    between atoms: _386  and  _387
REMARK  163  A    between atoms: _386  and  _389
REMARK  164  A    between atoms: _389  and  _390
REMARK  165  A    between atoms: _390  and  _391
REMARK  166  A    between atoms: _391  and  _392
REMARK  167  A    between atoms: _401  and  _403
REMARK  168  A    between atoms: _403  and  _404
REMARK  169  A    between atoms: _403  and  _406
REMARK  170  A    between atoms: _406  and  _407
REMARK  171  A    between atoms: _410  and  _412
REMARK  172  A    between atoms: _412  and  _413
REMARK  173  A    between atoms: _412  and  _415
REMARK  174  A    between atoms: _415  and  _416
REMARK  175  A    between atoms: _421  and  _423
REMARK  176  A    between atoms: _423  and  _424
REMARK  177  A    between atoms: _426  and  _428
REMARK  178  A    between atoms: _428  and  _429
REMARK  179  A    between atoms: _428  and  _431
REMARK  180  A    between atoms: _431  and  _432
REMARK  181  A    between atoms: _434  and  _436
REMARK  182  A    between atoms: _436  and  _437
REMARK  183  A    between atoms: _436  and  _439
REMARK  184  A    between atoms: _439  and  _440
REMARK  185  A    between atoms: _440  and  _441
REMARK  186  A    between atoms: _441  and  _442
REMARK  187  A    between atoms: _451  and  _453
REMARK  188  A    between atoms: _453  and  _454
REMARK  189  A    between atoms: _453  and  _456
REMARK  190  A    between atoms: _456  and  _457
REMARK  191  A    between atoms: _457  and  _458
REMARK  192  A    between atoms: _460  and  _462
REMARK  193  A    between atoms: _462  and  _463
REMARK  194  A    between atoms: _462  and  _465
REMARK  195  A    between atoms: _465  and  _466
REMARK  196  A    between atoms: _469  and  _471
REMARK  197  A    between atoms: _471  and  _472
REMARK  198  A    between atoms: _471  and  _474
REMARK  199  A    between atoms: _474  and  _475
REMARK  200  A    between atoms: _480  and  _482
REMARK  201  A    between atoms: _482  and  _483
REMARK  202  A    between atoms: _485  and  _487
REMARK  203  A    between atoms: _487  and  _488
REMARK  204  A    between atoms: _487  and  _490
REMARK  205  A    between atoms: _490  and  _491
REMARK  206  A    between atoms: _493  and  _495
REMARK  207  A    between atoms: _495  and  _496
REMARK  208  A    between atoms: _495  and  _498
REMARK  209  A    between atoms: _498  and  _499
REMARK  210  A    between atoms: _499  and  _500
REMARK  211  A    between atoms: _502  and  _504
REMARK  212  A    between atoms: _504  and  _505
REMARK  213  A    between atoms: _504  and  _507
REMARK  214  A    between atoms: _507  and  _508
REMARK  215  A    between atoms: _508  and  _509
REMARK  216  A    between atoms: _509  and  _510
REMARK  217  A    between atoms: _520  and  _521
REMARK  218  A    between atoms: _526  and  _528
REMARK  219  A    between atoms: _528  and  _529
REMARK  220  A    between atoms: _528  and  _531
REMARK  221  A    between atoms: _531  and  _532
REMARK  222  A    between atoms: _537  and  _538
REMARK  223  A    between atoms: _540  and  _542
REMARK  224  A    between atoms: _542  and  _543
REMARK  225  A    between atoms: _542  and  _545
REMARK  226  A    between atoms: _545  and  _546
REMARK  227  A    between atoms: _549  and  _551
REMARK  228  A    between atoms: _551  and  _552
REMARK  229  A    between atoms: _551  and  _554
REMARK  230  A    between atoms: _554  and  _555
REMARK  231  A    between atoms: _561  and  _563
REMARK  232  A    between atoms: _563  and  _564
REMARK  233  A    between atoms: _563  and  _566
REMARK  234  A    between atoms: _566  and  _567
REMARK  235  A    between atoms: _570  and  _572
REMARK  236  A    between atoms: _572  and  _573
REMARK  237  A    between atoms: _576  and  _578
REMARK  238  A    between atoms: _578  and  _579
REMARK  239  A    between atoms: _578  and  _581
REMARK  240  A    between atoms: _581  and  _582
REMARK                            x       y       z     vdW  Elec       q    Type
REMARK                         _______ _______ _______ _____ _____    ______ ____
ROOT
ATOM      1  O   HOH     1       3.941  13.195  41.586  0.00  0.00    +0.000 OA
ENDROOT
TORSDOF 0
REMARK  Name = ../refined-set-2016/2w8j/2w8j_pocket.pdb
REMARK  240 active torsions:
REMARK  status: ('A' for Active; 'I' for Inactive)
REMARK    1  A    between atoms: _1  and  _3
REMARK    2  A    between atoms: _3  and  _4
REMARK    3  A    between atoms: _3  and  _6
REMARK    4  A    between atoms: _6  and  _7
REMARK    5  A    between atoms: _10  and  _12
REMARK    6  A    between atoms: _12  and  _13
REMARK    7  A    between atoms: _12  and  _15
REMARK    8  A    between atoms: _15  and  _16
REMARK    9  A    between atoms: _21  and  _22
REMARK   10  A    between atoms: _24  and  _26
REMARK   11  A    between atoms: _26  and  _27
REMARK   12  A    between atoms: _26  and  _29
REMARK   13  A    between atoms: _29  and  _30
REMARK   14  A    between atoms: _35  and  _36
REMARK   15  A    between atoms: _38  and  _40
REMARK   16  A    between atoms: _40  and  _41
REMARK   17  A    between atoms: _40  and  _43
REMARK   18  A    between atoms: _43  and  _44
REMARK   19  A    between atoms: _46  and  _48
REMARK   20  A    between atoms: _48  and  _49
REMARK   21  A    between atoms: _48  and  _51
REMARK   22  A    between atoms: _51  and  _52
REMARK   23  A    between atoms: _55  and  _57
REMARK   24  A    between atoms: _57  and  _58
REMARK   25  A    between atoms: _60  and  _62
REMARK   26  A    between atoms: _62  and  _63
REMARK   27  A    between atoms: _62  and  _65
REMARK   28  A    between atoms: _65  and  _66
REMARK   29  A    between atoms: _71  and  _72
REMARK   30  A    between atoms: _74  and  _76
REMARK   31  A    between atoms: _76  and  _77
REMARK   32  A    between atoms: _76  and  _79
REMARK   33  A    between atoms: _79  and  _80
REMARK   34  A    between atoms: _80  and  _81
REMARK   35  A    between atoms: _83  and  _85
REMARK   36  A    between atoms: _85  and  _86
REMARK   37  A    between atoms: _89  and  _91
REMARK   38  A    between atoms: _91  and  _92
REMARK   39  A    between atoms: _91  and  _94
REMARK   40  A    between atoms: _94  and  _95
REMARK   41  A    between atoms: _100  and  _102
REMARK   42  A    between atoms: _102  and  _103
REMARK   43  A    between atoms: _102  and  _105
REMARK   44  A    between atoms: _105  and  _106
REMARK   45  A    between atoms: _109  and  _111
REMARK   46  A    between atoms: _111  and  _112
REMARK   47  A    between atoms: _111  and  _114
REMARK   48  A    between atoms: _114  and  _115
REMARK   49  A    between atoms: _117  and  _119
REMARK   50  A    between atoms: _119  and  _120
REMARK   51  A    between atoms: _119  and  _122
REMARK   52  A    between atoms: _122  and  _123
REMARK   53  A    between atoms: _128  and  _130
REMARK   54  A    between atoms: _130  and  _131
REMARK   55  A    between atoms: _134  and  _136
REMARK   56  A    between atoms: _136  and  _137
REMARK   57  A    between atoms: _136  and  _139
REMARK   58  A    between atoms: _139  and  _140
REMARK   59  A    between atoms: _142  and  _144
REMARK   60  A    between atoms: _144  and  _145
REMARK   61  A    between atoms: _144  and  _147
REMARK   62  A    between atoms: _147  and  _148
REMARK   63  A    between atoms: _151  and  _153
REMARK   64  A    between atoms: _153  and  _154
REMARK   65  A    between atoms: _153  and  _156
REMARK   66  A    between atoms: _156  and  _157
REMARK   67  A    between atoms: _160  and  _162
REMARK   68  A    between atoms: _162  and  _163
REMARK   69  A    between atoms: _162  and  _165
REMARK   70  A    between atoms: _165  and  _166
REMARK   71  A    between atoms: _166  and  _167
REMARK   72  A    between atoms: _170  and  _172
REMARK   73  A    between atoms: _172  and  _173
REMARK   74  A    between atoms: _175  and  _177
REMARK   75  A    between atoms: _177  and  _178
REMARK   76  A    between atoms: _177  and  _180
REMARK   77  A    between atoms: _183  and  _185
REMARK   78  A    between atoms: _185  and  _186
REMARK   79  A    between atoms: _185  and  _188
REMARK   80  A    between atoms: _188  and  _189
REMARK   81  A    between atoms: _194  and  _195
REMARK   82  A    between atoms: _197  and  _199
REMARK   83  A    between atoms: _199  and  _200
REMARK   84  A    between atoms: _199  and  _202
REMARK   85  A    between atoms: _202  and  _203
REMARK   86  A    between atoms: _205  and  _207
REMARK   87  A    between atoms: _207  and  _208
REMARK   88  A    between atoms: _207  and  _210
REMARK   89  A    between atoms: _210  and  _211
REMARK   90  A    between atoms: _211  and  _212
REMARK   91  A    between atoms: _214  and  _216
REMARK   92  A    between atoms: _216  and  _217
REMARK   93  A    between atoms: _216  and  _219
REMARK   94  A    between atoms: _219  and  _220
REMARK   95  A    between atoms: _223  and  _225
REMARK   96  A    between atoms: _225  and  _226
REMARK   97  A    between atoms: _225  and  _228
REMARK   98  A    between atoms: _228  and  _229
REMARK   99  A    between atoms: _229  and  _230
REMARK  100  A    between atoms: _233  and  _235
REMARK  101  A    between atoms: _235  and  _236
REMARK  102  A    between atoms: _239  and  _241
REMARK  103  A    between atoms: _241  and  _242
REMARK  104  A    between atoms: _241  and  _244
REMARK  105  A    between atoms: _244  and  _245
REMARK  106  A    between atoms: _250  and  _252
REMARK  107  A    between atoms: _252  and  _253
REMARK  108  A    between atoms: _252  and  _255
REMARK  109  A    between atoms: _255  and  _256
REMARK  110  A    between atoms: _258  and  _260
REMARK  111  A    between atoms: _260  and  _261
REMARK  112  A    between atoms: _260  and  _263
REMARK  113  A    between atoms: _266  and  _268
REMARK  114  A    between atoms: _268  and  _269
REMARK  115  A    between atoms: _271  and  _273
REMARK  116  A    between atoms: _273  and  _274
REMARK  117  A    between atoms: _273  and  _276
REMARK  118  A    between atoms: _276  and  _277
REMARK  119  A    between atoms: _280  and  _282
REMARK  120  A    between atoms: _282  and  _283
REMARK  121  A    between atoms: _282  and  _285
REMARK  122  A    between atoms: _285  and  _286
REMARK  123  A    between atoms: _292  and  _294
REMARK  124  A    between atoms: _294  and  _295
REMARK  125  A    between atoms: _294  and  _297
REMARK  126  A    between atoms: _297  and  _298
REMARK  127  A    between atoms: _300  and  _302
REMARK  128  A    between atoms: _302  and  _303
REMARK  129  A    between atoms: _302  and  _305
REMARK  130  A    between atoms: _305  and  _306
REMARK  131  A    between atoms: _306  and  _307
REMARK  132  A    between atoms: _307  and  _308
REMARK  133  A    between atoms: _308  and  _309
REMARK  134  A    between atoms: _313  and  _315
REMARK  135  A    between atoms: _315  and  _316
REMARK  136  A    between atoms: _315  and  _318
REMARK  137  A    between atoms: _318  and  _319
REMARK  138  A    between atoms: _322  and  _324
REMARK  139  A    between atoms: _324  and  _325
REMARK  140  A    between atoms: _324  and  _327
REMARK  141  A    between atoms: _330  and  _332
REMARK  142  A    between atoms: _332  and  _333
REMARK  143  A    between atoms: _335  and  _337
REMARK  144  A    between atoms: _337  and  _338
REMARK  145  A    between atoms: _340  and  _342
REMARK  146  A    between atoms: _342  and  _343
REMARK  147  A    between atoms: _342  and  _345
REMARK  148  A    between atoms: _345  and  _346
REMARK  149  A    between atoms: _352  and  _354
REMARK  150  A    between atoms: _354  and  _355
REMARK  151  A    between atoms: _354  and  _357
REMARK  152  A    between atoms: _357  and  _358
REMARK  153  A    between atoms: _361  and  _363
REMARK  154  A    between atoms: _363  and  _364
REMARK  155  A    between atoms: _363  and  _366
REMARK  156  A    between atoms: _366  and  _367
REMARK  157  A    between atoms: _367  and  _368
REMARK  158  A    between atoms: _368  and  _369
REMARK  159  A    between atoms: _378  and  _380
REMARK  160  A    between atoms: _380  and  _381
REMARK  161  A    between atoms: _384  and  _386
REMARK  162  A    between atoms: _386  and  _387
REMARK  163  A    between atoms: _386  and  _389
REMARK  164  A    between atoms: _389  and  _390
REMARK  165  A    between atoms: _390  and  _391
REMARK  166  A    between atoms: _391  and  _392
REMARK  167  A    between atoms: _401  and  _403
REMARK  168  A    between atoms: _403  and  _404
REMARK  169  A    between atoms: _403  and  _406
REMARK  170  A    between atoms: _406  and  _407
REMARK  171  A    between atoms: _410  and  _412
REMARK  172  A    between atoms: _412  and  _413
REMARK  173  A    between atoms: _412  and  _415
REMARK  174  A    between atoms: _415  and  _416
REMARK  175  A    between atoms: _421  and  _423
REMARK  176  A    between atoms: _423  and  _424
REMARK  177  A    between atoms: _426  and  _428
REMARK  178  A    between atoms: _428  and  _429
REMARK  179  A    between atoms: _428  and  _431
REMARK  180  A    between atoms: _431  and  _432
REMARK  181  A    between atoms: _434  and  _436
REMARK  182  A    between atoms: _436  and  _437
REMARK  183  A    between atoms: _436  and  _439
REMARK  184  A    between atoms: _439  and  _440
REMARK  185  A    between atoms: _440  and  _441
REMARK  186  A    between atoms: _441  and  _442
REMARK  187  A    between atoms: _451  and  _453
REMARK  188  A    between atoms: _453  and  _454
REMARK  189  A    between atoms: _453  and  _456
REMARK  190  A    between atoms: _456  and  _457
REMARK  191  A    between atoms: _457  and  _458
REMARK  192  A    between atoms: _460  and  _462
REMARK  193  A    between atoms: _462  and  _463
REMARK  194  A    between atoms: _462  and  _465
REMARK  195  A    between atoms: _465  and  _466
REMARK  196  A    between atoms: _469  and  _471
REMARK  197  A    between atoms: _471  and  _472
REMARK  198  A    between atoms: _471  and  _474
REMARK  199  A    between atoms: _474  and  _475
REMARK  200  A    between atoms: _480  and  _482
REMARK  201  A    between atoms: _482  and  _483
REMARK  202  A    between atoms: _485  and  _487
REMARK  203  A    between atoms: _487  and  _488
REMARK  204  A    between atoms: _487  and  _490
REMARK  205  A    between atoms: _490  and  _491
REMARK  206  A    between atoms: _493  and  _495
REMARK  207  A    between atoms: _495  and  _496
REMARK  208  A    between atoms: _495  and  _498
REMARK  209  A    between atoms: _498  and  _499
REMARK  210  A    between atoms: _499  and  _500
REMARK  211  A    between atoms: _502  and  _504
REMARK  212  A    between atoms: _504  and  _505
REMARK  213  A    between atoms: _504  and  _507
REMARK  214  A    between atoms: _507  and  _508
REMARK  215  A    between atoms: _508  and  _509
REMARK  216  A    between atoms: _509  and  _510
REMARK  217  A    between atoms: _520  and  _521
REMARK  218  A    between atoms: _526  and  _528
REMARK  219  A    between atoms: _528  and  _529
REMARK  220  A    between atoms: _528  and  _531
REMARK  221  A    between atoms: _531  and  _532
REMARK  222  A    between atoms: _537  and  _538
REMARK  223  A    between atoms: _540  and  _542
REMARK  224  A    between atoms: _542  and  _543
REMARK  225  A    between atoms: _542  and  _545
REMARK  226  A    between atoms: _545  and  _546
REMARK  227  A    between atoms: _549  and  _551
REMARK  228  A    between atoms: _551  and  _552
REMARK  229  A    between atoms: _551  and  _554
REMARK  230  A    between atoms: _554  and  _555
REMARK  231  A    between atoms: _561  and  _563
REMARK  232  A    between atoms: _563  and  _564
REMARK  233  A    between atoms: _563  and  _566
REMARK  234  A    between atoms: _566  and  _567
REMARK  235  A    between atoms: _570  and  _572
REMARK  236  A    between atoms: _572  and  _573
REMARK  237  A    between atoms: _576  and  _578
REMARK  238  A    between atoms: _578  and  _579
REMARK  239  A    between atoms: _578  and  _581
REMARK  240  A    between atoms: _581  and  _582
REMARK                            x       y       z     vdW  Elec       q    Type
REMARK                         _______ _______ _______ _____ _____    ______ ____
ROOT
ATOM      1  O   HOH     1       5.979  12.934  39.304  0.00  0.00    +0.000 OA
ENDROOT
TORSDOF 0
REMARK  Name = ../refined-set-2016/2w8j/2w8j_pocket.pdb
REMARK  240 active torsions:
REMARK  status: ('A' for Active; 'I' for Inactive)
REMARK    1  A    between atoms: _1  and  _3
REMARK    2  A    between atoms: _3  and  _4
REMARK    3  A    between atoms: _3  and  _6
REMARK    4  A    between atoms: _6  and  _7
REMARK    5  A    between atoms: _10  and  _12
REMARK    6  A    between atoms: _12  and  _13
REMARK    7  A    between atoms: _12  and  _15
REMARK    8  A    between atoms: _15  and  _16
REMARK    9  A    between atoms: _21  and  _22
REMARK   10  A    between atoms: _24  and  _26
REMARK   11  A    between atoms: _26  and  _27
REMARK   12  A    between atoms: _26  and  _29
REMARK   13  A    between atoms: _29  and  _30
REMARK   14  A    between atoms: _35  and  _36
REMARK   15  A    between atoms: _38  and  _40
REMARK   16  A    between atoms: _40  and  _41
REMARK   17  A    between atoms: _40  and  _43
REMARK   18  A    between atoms: _43  and  _44
REMARK   19  A    between atoms: _46  and  _48
REMARK   20  A    between atoms: _48  and  _49
REMARK   21  A    between atoms: _48  and  _51
REMARK   22  A    between atoms: _51  and  _52
REMARK   23  A    between atoms: _55  and  _57
REMARK   24  A    between atoms: _57  and  _58
REMARK   25  A    between atoms: _60  and  _62
REMARK   26  A    between atoms: _62  and  _63
REMARK   27  A    between atoms: _62  and  _65
REMARK   28  A    between atoms: _65  and  _66
REMARK   29  A    between atoms: _71  and  _72
REMARK   30  A    between atoms: _74  and  _76
REMARK   31  A    between atoms: _76  and  _77
REMARK   32  A    between atoms: _76  and  _79
REMARK   33  A    between atoms: _79  and  _80
REMARK   34  A    between atoms: _80  and  _81
REMARK   35  A    between atoms: _83  and  _85
REMARK   36  A    between atoms: _85  and  _86
REMARK   37  A    between atoms: _89  and  _91
REMARK   38  A    between atoms: _91  and  _92
REMARK   39  A    between atoms: _91  and  _94
REMARK   40  A    between atoms: _94  and  _95
REMARK   41  A    between atoms: _100  and  _102
REMARK   42  A    between atoms: _102  and  _103
REMARK   43  A    between atoms: _102  and  _105
REMARK   44  A    between atoms: _105  and  _106
REMARK   45  A    between atoms: _109  and  _111
REMARK   46  A    between atoms: _111  and  _112
REMARK   47  A    between atoms: _111  and  _114
REMARK   48  A    between atoms: _114  and  _115
REMARK   49  A    between atoms: _117  and  _119
REMARK   50  A    between atoms: _119  and  _120
REMARK   51  A    between atoms: _119  and  _122
REMARK   52  A    between atoms: _122  and  _123
REMARK   53  A    between atoms: _128  and  _130
REMARK   54  A    between atoms: _130  and  _131
REMARK   55  A    between atoms: _134  and  _136
REMARK   56  A    between atoms: _136  and  _137
REMARK   57  A    between atoms: _136  and  _139
REMARK   58  A    between atoms: _139  and  _140
REMARK   59  A    between atoms: _142  and  _144
REMARK   60  A    between atoms: _144  and  _145
REMARK   61  A    between atoms: _144  and  _147
REMARK   62  A    between atoms: _147  and  _148
REMARK   63  A    between atoms: _151  and  _153
REMARK   64  A    between atoms: _153  and  _154
REMARK   65  A    between atoms: _153  and  _156
REMARK   66  A    between atoms: _156  and  _157
REMARK   67  A    between atoms: _160  and  _162
REMARK   68  A    between atoms: _162  and  _163
REMARK   69  A    between atoms: _162  and  _165
REMARK   70  A    between atoms: _165  and  _166
REMARK   71  A    between atoms: _166  and  _167
REMARK   72  A    between atoms: _170  and  _172
REMARK   73  A    between atoms: _172  and  _173
REMARK   74  A    between atoms: _175  and  _177
REMARK   75  A    between atoms: _177  and  _178
REMARK   76  A    between atoms: _177  and  _180
REMARK   77  A    between atoms: _183  and  _185
REMARK   78  A    between atoms: _185  and  _186
REMARK   79  A    between atoms: _185  and  _188
REMARK   80  A    between atoms: _188  and  _189
REMARK   81  A    between atoms: _194  and  _195
REMARK   82  A    between atoms: _197  and  _199
REMARK   83  A    between atoms: _199  and  _200
REMARK   84  A    between atoms: _199  and  _202
REMARK   85  A    between atoms: _202  and  _203
REMARK   86  A    between atoms: _205  and  _207
REMARK   87  A    between atoms: _207  and  _208
REMARK   88  A    between atoms: _207  and  _210
REMARK   89  A    between atoms: _210  and  _211
REMARK   90  A    between atoms: _211  and  _212
REMARK   91  A    between atoms: _214  and  _216
REMARK   92  A    between atoms: _216  and  _217
REMARK   93  A    between atoms: _216  and  _219
REMARK   94  A    between atoms: _219  and  _220
REMARK   95  A    between atoms: _223  and  _225
REMARK   96  A    between atoms: _225  and  _226
REMARK   97  A    between atoms: _225  and  _228
REMARK   98  A    between atoms: _228  and  _229
REMARK   99  A    between atoms: _229  and  _230
REMARK  100  A    between atoms: _233  and  _235
REMARK  101  A    between atoms: _235  and  _236
REMARK  102  A    between atoms: _239  and  _241
REMARK  103  A    between atoms: _241  and  _242
REMARK  104  A    between atoms: _241  and  _244
REMARK  105  A    between atoms: _244  and  _245
REMARK  106  A    between atoms: _250  and  _252
REMARK  107  A    between atoms: _252  and  _253
REMARK  108  A    between atoms: _252  and  _255
REMARK  109  A    between atoms: _255  and  _256
REMARK  110  A    between atoms: _258  and  _260
REMARK  111  A    between atoms: _260  and  _261
REMARK  112  A    between atoms: _260  and  _263
REMARK  113  A    between atoms: _266  and  _268
REMARK  114  A    between atoms: _268  and  _269
REMARK  115  A    between atoms: _271  and  _273
REMARK  116  A    between atoms: _273  and  _274
REMARK  117  A    between atoms: _273  and  _276
REMARK  118  A    between atoms: _276  and  _277
REMARK  119  A    between atoms: _280  and  _282
REMARK  120  A    between atoms: _282  and  _283
REMARK  121  A    between atoms: _282  and  _285
REMARK  122  A    between atoms: _285  and  _286
REMARK  123  A    between atoms: _292  and  _294
REMARK  124  A    between atoms: _294  and  _295
REMARK  125  A    between atoms: _294  and  _297
REMARK  126  A    between atoms: _297  and  _298
REMARK  127  A    between atoms: _300  and  _302
REMARK  128  A    between atoms: _302  and  _303
REMARK  129  A    between atoms: _302  and  _305
REMARK  130  A    between atoms: _305  and  _306
REMARK  131  A    between atoms: _306  and  _307
REMARK  132  A    between atoms: _307  and  _308
REMARK  133  A    between atoms: _308  and  _309
REMARK  134  A    between atoms: _313  and  _315
REMARK  135  A    between atoms: _315  and  _316
REMARK  136  A    between atoms: _315  and  _318
REMARK  137  A    between atoms: _318  and  _319
REMARK  138  A    between atoms: _322  and  _324
REMARK  139  A    between atoms: _324  and  _325
REMARK  140  A    between atoms: _324  and  _327
REMARK  141  A    between atoms: _330  and  _332
REMARK  142  A    between atoms: _332  and  _333
REMARK  143  A    between atoms: _335  and  _337
REMARK  144  A    between atoms: _337  and  _338
REMARK  145  A    between atoms: _340  and  _342
REMARK  146  A    between atoms: _342  and  _343
REMARK  147  A    between atoms: _342  and  _345
REMARK  148  A    between atoms: _345  and  _346
REMARK  149  A    between atoms: _352  and  _354
REMARK  150  A    between atoms: _354  and  _355
REMARK  151  A    between atoms: _354  and  _357
REMARK  152  A    between atoms: _357  and  _358
REMARK  153  A    between atoms: _361  and  _363
REMARK  154  A    between atoms: _363  and  _364
REMARK  155  A    between atoms: _363  and  _366
REMARK  156  A    between atoms: _366  and  _367
REMARK  157  A    between atoms: _367  and  _368
REMARK  158  A    between atoms: _368  and  _369
REMARK  159  A    between atoms: _378  and  _380
REMARK  160  A    between atoms: _380  and  _381
REMARK  161  A    between atoms: _384  and  _386
REMARK  162  A    between atoms: _386  and  _387
REMARK  163  A    between atoms: _386  and  _389
REMARK  164  A    between atoms: _389  and  _390
REMARK  165  A    between atoms: _390  and  _391
REMARK  166  A    between atoms: _391  and  _392
REMARK  167  A    between atoms: _401  and  _403
REMARK  168  A    between atoms: _403  and  _404
REMARK  169  A    between atoms: _403  and  _406
REMARK  170  A    between atoms: _406  and  _407
REMARK  171  A    between atoms: _410  and  _412
REMARK  172  A    between atoms: _412  and  _413
REMARK  173  A    between atoms: _412  and  _415
REMARK  174  A    between atoms: _415  and  _416
REMARK  175  A    between atoms: _421  and  _423
REMARK  176  A    between atoms: _423  and  _424
REMARK  177  A    between atoms: _426  and  _428
REMARK  178  A    between atoms: _428  and  _429
REMARK  179  A    between atoms: _428  and  _431
REMARK  180  A    between atoms: _431  and  _432
REMARK  181  A    between atoms: _434  and  _436
REMARK  182  A    between atoms: _436  and  _437
REMARK  183  A    between atoms: _436  and  _439
REMARK  184  A    between atoms: _439  and  _440
REMARK  185  A    between atoms: _440  and  _441
REMARK  186  A    between atoms: _441  and  _442
REMARK  187  A    between atoms: _451  and  _453
REMARK  188  A    between atoms: _453  and  _454
REMARK  189  A    between atoms: _453  and  _456
REMARK  190  A    between atoms: _456  and  _457
REMARK  191  A    between atoms: _457  and  _458
REMARK  192  A    between atoms: _460  and  _462
REMARK  193  A    between atoms: _462  and  _463
REMARK  194  A    between atoms: _462  and  _465
REMARK  195  A    between atoms: _465  and  _466
REMARK  196  A    between atoms: _469  and  _471
REMARK  197  A    between atoms: _471  and  _472
REMARK  198  A    between atoms: _471  and  _474
REMARK  199  A    between atoms: _474  and  _475
REMARK  200  A    between atoms: _480  and  _482
REMARK  201  A    between atoms: _482  and  _483
REMARK  202  A    between atoms: _485  and  _487
REMARK  203  A    between atoms: _487  and  _488
REMARK  204  A    between atoms: _487  and  _490
REMARK  205  A    between atoms: _490  and  _491
REMARK  206  A    between atoms: _493  and  _495
REMARK  207  A    between atoms: _495  and  _496
REMARK  208  A    between atoms: _495  and  _498
REMARK  209  A    between atoms: _498  and  _499
REMARK  210  A    between atoms: _499  and  _500
REMARK  211  A    between atoms: _502  and  _504
REMARK  212  A    between atoms: _504  and  _505
REMARK  213  A    between atoms: _504  and  _507
REMARK  214  A    between atoms: _507  and  _508
REMARK  215  A    between atoms: _508  and  _509
REMARK  216  A    between atoms: _509  and  _510
REMARK  217  A    between atoms: _520  and  _521
REMARK  218  A    between atoms: _526  and  _528
REMARK  219  A    between atoms: _528  and  _529
REMARK  220  A    between atoms: _528  and  _531
REMARK  221  A    between atoms: _531  and  _532
REMARK  222  A    between atoms: _537  and  _538
REMARK  223  A    between atoms: _540  and  _542
REMARK  224  A    between atoms: _542  and  _543
REMARK  225  A    between atoms: _542  and  _545
REMARK  226  A    between atoms: _545  and  _546
REMARK  227  A    between atoms: _549  and  _551
REMARK  228  A    between atoms: _551  and  _552
REMARK  229  A    between atoms: _551  and  _554
REMARK  230  A    between atoms: _554  and  _555
REMARK  231  A    between atoms: _561  and  _563
REMARK  232  A    between atoms: _563  and  _564
REMARK  233  A    between atoms: _563  and  _566
REMARK  234  A    between atoms: _566  and  _567
REMARK  235  A    between atoms: _570  and  _572
REMARK  236  A    between atoms: _572  and  _573
REMARK  237  A    between atoms: _576  and  _578
REMARK  238  A    between atoms: _578  and  _579
REMARK  239  A    between atoms: _578  and  _581
REMARK  240  A    between atoms: _581  and  _582
REMARK                            x       y       z     vdW  Elec       q    Type
REMARK                         _______ _______ _______ _____ _____    ______ ____
ROOT
ATOM      1  O   HOH     1       5.489  12.220  36.639  0.00  0.00    +0.000 OA
ENDROOT
TORSDOF 0
REMARK  Name = ../refined-set-2016/2w8j/2w8j_pocket.pdb
REMARK  240 active torsions:
REMARK  status: ('A' for Active; 'I' for Inactive)
REMARK    1  A    between atoms: _1  and  _3
REMARK    2  A    between atoms: _3  and  _4
REMARK    3  A    between atoms: _3  and  _6
REMARK    4  A    between atoms: _6  and  _7
REMARK    5  A    between atoms: _10  and  _12
REMARK    6  A    between atoms: _12  and  _13
REMARK    7  A    between atoms: _12  and  _15
REMARK    8  A    between atoms: _15  and  _16
REMARK    9  A    between atoms: _21  and  _22
REMARK   10  A    between atoms: _24  and  _26
REMARK   11  A    between atoms: _26  and  _27
REMARK   12  A    between atoms: _26  and  _29
REMARK   13  A    between atoms: _29  and  _30
REMARK   14  A    between atoms: _35  and  _36
REMARK   15  A    between atoms: _38  and  _40
REMARK   16  A    between atoms: _40  and  _41
REMARK   17  A    between atoms: _40  and  _43
REMARK   18  A    between atoms: _43  and  _44
REMARK   19  A    between atoms: _46  and  _48
REMARK   20  A    between atoms: _48  and  _49
REMARK   21  A    between atoms: _48  and  _51
REMARK   22  A    between atoms: _51  and  _52
REMARK   23  A    between atoms: _55  and  _57
REMARK   24  A    between atoms: _57  and  _58
REMARK   25  A    between atoms: _60  and  _62
REMARK   26  A    between atoms: _62  and  _63
REMARK   27  A    between atoms: _62  and  _65
REMARK   28  A    between atoms: _65  and  _66
REMARK   29  A    between atoms: _71  and  _72
REMARK   30  A    between atoms: _74  and  _76
REMARK   31  A    between atoms: _76  and  _77
REMARK   32  A    between atoms: _76  and  _79
REMARK   33  A    between atoms: _79  and  _80
REMARK   34  A    between atoms: _80  and  _81
REMARK   35  A    between atoms: _83  and  _85
REMARK   36  A    between atoms: _85  and  _86
REMARK   37  A    between atoms: _89  and  _91
REMARK   38  A    between atoms: _91  and  _92
REMARK   39  A    between atoms: _91  and  _94
REMARK   40  A    between atoms: _94  and  _95
REMARK   41  A    between atoms: _100  and  _102
REMARK   42  A    between atoms: _102  and  _103
REMARK   43  A    between atoms: _102  and  _105
REMARK   44  A    between atoms: _105  and  _106
REMARK   45  A    between atoms: _109  and  _111
REMARK   46  A    between atoms: _111  and  _112
REMARK   47  A    between atoms: _111  and  _114
REMARK   48  A    between atoms: _114  and  _115
REMARK   49  A    between atoms: _117  and  _119
REMARK   50  A    between atoms: _119  and  _120
REMARK   51  A    between atoms: _119  and  _122
REMARK   52  A    between atoms: _122  and  _123
REMARK   53  A    between atoms: _128  and  _130
REMARK   54  A    between atoms: _130  and  _131
REMARK   55  A    between atoms: _134  and  _136
REMARK   56  A    between atoms: _136  and  _137
REMARK   57  A    between atoms: _136  and  _139
REMARK   58  A    between atoms: _139  and  _140
REMARK   59  A    between atoms: _142  and  _144
REMARK   60  A    between atoms: _144  and  _145
REMARK   61  A    between atoms: _144  and  _147
REMARK   62  A    between atoms: _147  and  _148
REMARK   63  A    between atoms: _151  and  _153
REMARK   64  A    between atoms: _153  and  _154
REMARK   65  A    between atoms: _153  and  _156
REMARK   66  A    between atoms: _156  and  _157
REMARK   67  A    between atoms: _160  and  _162
REMARK   68  A    between atoms: _162  and  _163
REMARK   69  A    between atoms: _162  and  _165
REMARK   70  A    between atoms: _165  and  _166
REMARK   71  A    between atoms: _166  and  _167
REMARK   72  A    between atoms: _170  and  _172
REMARK   73  A    between atoms: _172  and  _173
REMARK   74  A    between atoms: _175  and  _177
REMARK   75  A    between atoms: _177  and  _178
REMARK   76  A    between atoms: _177  and  _180
REMARK   77  A    between atoms: _183  and  _185
REMARK   78  A    between atoms: _185  and  _186
REMARK   79  A    between atoms: _185  and  _188
REMARK   80  A    between atoms: _188  and  _189
REMARK   81  A    between atoms: _194  and  _195
REMARK   82  A    between atoms: _197  and  _199
REMARK   83  A    between atoms: _199  and  _200
REMARK   84  A    between atoms: _199  and  _202
REMARK   85  A    between atoms: _202  and  _203
REMARK   86  A    between atoms: _205  and  _207
REMARK   87  A    between atoms: _207  and  _208
REMARK   88  A    between atoms: _207  and  _210
REMARK   89  A    between atoms: _210  and  _211
REMARK   90  A    between atoms: _211  and  _212
REMARK   91  A    between atoms: _214  and  _216
REMARK   92  A    between atoms: _216  and  _217
REMARK   93  A    between atoms: _216  and  _219
REMARK   94  A    between atoms: _219  and  _220
REMARK   95  A    between atoms: _223  and  _225
REMARK   96  A    between atoms: _225  and  _226
REMARK   97  A    between atoms: _225  and  _228
REMARK   98  A    between atoms: _228  and  _229
REMARK   99  A    between atoms: _229  and  _230
REMARK  100  A    between atoms: _233  and  _235
REMARK  101  A    between atoms: _235  and  _236
REMARK  102  A    between atoms: _239  and  _241
REMARK  103  A    between atoms: _241  and  _242
REMARK  104  A    between atoms: _241  and  _244
REMARK  105  A    between atoms: _244  and  _245
REMARK  106  A    between atoms: _250  and  _252
REMARK  107  A    between atoms: _252  and  _253
REMARK  108  A    between atoms: _252  and  _255
REMARK  109  A    between atoms: _255  and  _256
REMARK  110  A    between atoms: _258  and  _260
REMARK  111  A    between atoms: _260  and  _261
REMARK  112  A    between atoms: _260  and  _263
REMARK  113  A    between atoms: _266  and  _268
REMARK  114  A    between atoms: _268  and  _269
REMARK  115  A    between atoms: _271  and  _273
REMARK  116  A    between atoms: _273  and  _274
REMARK  117  A    between atoms: _273  and  _276
REMARK  118  A    between atoms: _276  and  _277
REMARK  119  A    between atoms: _280  and  _282
REMARK  120  A    between atoms: _282  and  _283
REMARK  121  A    between atoms: _282  and  _285
REMARK  122  A    between atoms: _285  and  _286
REMARK  123  A    between atoms: _292  and  _294
REMARK  124  A    between atoms: _294  and  _295
REMARK  125  A    between atoms: _294  and  _297
REMARK  126  A    between atoms: _297  and  _298
REMARK  127  A    between atoms: _300  and  _302
REMARK  128  A    between atoms: _302  and  _303
REMARK  129  A    between atoms: _302  and  _305
REMARK  130  A    between atoms: _305  and  _306
REMARK  131  A    between atoms: _306  and  _307
REMARK  132  A    between atoms: _307  and  _308
REMARK  133  A    between atoms: _308  and  _309
REMARK  134  A    between atoms: _313  and  _315
REMARK  135  A    between atoms: _315  and  _316
REMARK  136  A    between atoms: _315  and  _318
REMARK  137  A    between atoms: _318  and  _319
REMARK  138  A    between atoms: _322  and  _324
REMARK  139  A    between atoms: _324  and  _325
REMARK  140  A    between atoms: _324  and  _327
REMARK  141  A    between atoms: _330  and  _332
REMARK  142  A    between atoms: _332  and  _333
REMARK  143  A    between atoms: _335  and  _337
REMARK  144  A    between atoms: _337  and  _338
REMARK  145  A    between atoms: _340  and  _342
REMARK  146  A    between atoms: _342  and  _343
REMARK  147  A    between atoms: _342  and  _345
REMARK  148  A    between atoms: _345  and  _346
REMARK  149  A    between atoms: _352  and  _354
REMARK  150  A    between atoms: _354  and  _355
REMARK  151  A    between atoms: _354  and  _357
REMARK  152  A    between atoms: _357  and  _358
REMARK  153  A    between atoms: _361  and  _363
REMARK  154  A    between atoms: _363  and  _364
REMARK  155  A    between atoms: _363  and  _366
REMARK  156  A    between atoms: _366  and  _367
REMARK  157  A    between atoms: _367  and  _368
REMARK  158  A    between atoms: _368  and  _369
REMARK  159  A    between atoms: _378  and  _380
REMARK  160  A    between atoms: _380  and  _381
REMARK  161  A    between atoms: _384  and  _386
REMARK  162  A    between atoms: _386  and  _387
REMARK  163  A    between atoms: _386  and  _389
REMARK  164  A    between atoms: _389  and  _390
REMARK  165  A    between atoms: _390  and  _391
REMARK  166  A    between atoms: _391  and  _392
REMARK  167  A    between atoms: _401  and  _403
REMARK  168  A    between atoms: _403  and  _404
REMARK  169  A    between atoms: _403  and  _406
REMARK  170  A    between atoms: _406  and  _407
REMARK  171  A    between atoms: _410  and  _412
REMARK  172  A    between atoms: _412  and  _413
REMARK  173  A    between atoms: _412  and  _415
REMARK  174  A    between atoms: _415  and  _416
REMARK  175  A    between atoms: _421  and  _423
REMARK  176  A    between atoms: _423  and  _424
REMARK  177  A    between atoms: _426  and  _428
REMARK  178  A    between atoms: _428  and  _429
REMARK  179  A    between atoms: _428  and  _431
REMARK  180  A    between atoms: _431  and  _432
REMARK  181  A    between atoms: _434  and  _436
REMARK  182  A    between atoms: _436  and  _437
REMARK  183  A    between atoms: _436  and  _439
REMARK  184  A    between atoms: _439  and  _440
REMARK  185  A    between atoms: _440  and  _441
REMARK  186  A    between atoms: _441  and  _442
REMARK  187  A    between atoms: _451  and  _453
REMARK  188  A    between atoms: _453  and  _454
REMARK  189  A    between atoms: _453  and  _456
REMARK  190  A    between atoms: _456  and  _457
REMARK  191  A    between atoms: _457  and  _458
REMARK  192  A    between atoms: _460  and  _462
REMARK  193  A    between atoms: _462  and  _463
REMARK  194  A    between atoms: _462  and  _465
REMARK  195  A    between atoms: _465  and  _466
REMARK  196  A    between atoms: _469  and  _471
REMARK  197  A    between atoms: _471  and  _472
REMARK  198  A    between atoms: _471  and  _474
REMARK  199  A    between atoms: _474  and  _475
REMARK  200  A    between atoms: _480  and  _482
REMARK  201  A    between atoms: _482  and  _483
REMARK  202  A    between atoms: _485  and  _487
REMARK  203  A    between atoms: _487  and  _488
REMARK  204  A    between atoms: _487  and  _490
REMARK  205  A    between atoms: _490  and  _491
REMARK  206  A    between atoms: _493  and  _495
REMARK  207  A    between atoms: _495  and  _496
REMARK  208  A    between atoms: _495  and  _498
REMARK  209  A    between atoms: _498  and  _499
REMARK  210  A    between atoms: _499  and  _500
REMARK  211  A    between atoms: _502  and  _504
REMARK  212  A    between atoms: _504  and  _505
REMARK  213  A    between atoms: _504  and  _507
REMARK  214  A    between atoms: _507  and  _508
REMARK  215  A    between atoms: _508  and  _509
REMARK  216  A    between atoms: _509  and  _510
REMARK  217  A    between atoms: _520  and  _521
REMARK  218  A    between atoms: _526  and  _528
REMARK  219  A    between atoms: _528  and  _529
REMARK  220  A    between atoms: _528  and  _531
REMARK  221  A    between atoms: _531  and  _532
REMARK  222  A    between atoms: _537  and  _538
REMARK  223  A    between atoms: _540  and  _542
REMARK  224  A    between atoms: _542  and  _543
REMARK  225  A    between atoms: _542  and  _545
REMARK  226  A    between atoms: _545  and  _546
REMARK  227  A    between atoms: _549  and  _551
REMARK  228  A    between atoms: _551  and  _552
REMARK  229  A    between atoms: _551  and  _554
REMARK  230  A    between atoms: _554  and  _555
REMARK  231  A    between atoms: _561  and  _563
REMARK  232  A    between atoms: _563  and  _564
REMARK  233  A    between atoms: _563  and  _566
REMARK  234  A    between atoms: _566  and  _567
REMARK  235  A    between atoms: _570  and  _572
REMARK  236  A    between atoms: _572  and  _573
REMARK  237  A    between atoms: _576  and  _578
REMARK  238  A    between atoms: _578  and  _579
REMARK  239  A    between atoms: _578  and  _581
REMARK  240  A    between atoms: _581  and  _582
REMARK                            x       y       z     vdW  Elec       q    Type
REMARK                         _______ _______ _______ _____ _____    ______ ____
ROOT
ATOM      1  O   HOH     1       3.741  15.452  42.996  0.00  0.00    +0.000 OA
ENDROOT
TORSDOF 0
REMARK  Name = ../refined-set-2016/2w8j/2w8j_pocket.pdb
REMARK  240 active torsions:
REMARK  status: ('A' for Active; 'I' for Inactive)
REMARK    1  A    between atoms: _1  and  _3
REMARK    2  A    between atoms: _3  and  _4
REMARK    3  A    between atoms: _3  and  _6
REMARK    4  A    between atoms: _6  and  _7
REMARK    5  A    between atoms: _10  and  _12
REMARK    6  A    between atoms: _12  and  _13
REMARK    7  A    between atoms: _12  and  _15
REMARK    8  A    between atoms: _15  and  _16
REMARK    9  A    between atoms: _21  and  _22
REMARK   10  A    between atoms: _24  and  _26
REMARK   11  A    between atoms: _26  and  _27
REMARK   12  A    between atoms: _26  and  _29
REMARK   13  A    between atoms: _29  and  _30
REMARK   14  A    between atoms: _35  and  _36
REMARK   15  A    between atoms: _38  and  _40
REMARK   16  A    between atoms: _40  and  _41
REMARK   17  A    between atoms: _40  and  _43
REMARK   18  A    between atoms: _43  and  _44
REMARK   19  A    between atoms: _46  and  _48
REMARK   20  A    between atoms: _48  and  _49
REMARK   21  A    between atoms: _48  and  _51
REMARK   22  A    between atoms: _51  and  _52
REMARK   23  A    between atoms: _55  and  _57
REMARK   24  A    between atoms: _57  and  _58
REMARK   25  A    between atoms: _60  and  _62
REMARK   26  A    between atoms: _62  and  _63
REMARK   27  A    between atoms: _62  and  _65
REMARK   28  A    between atoms: _65  and  _66
REMARK   29  A    between atoms: _71  and  _72
REMARK   30  A    between atoms: _74  and  _76
REMARK   31  A    between atoms: _76  and  _77
REMARK   32  A    between atoms: _76  and  _79
REMARK   33  A    between atoms: _79  and  _80
REMARK   34  A    between atoms: _80  and  _81
REMARK   35  A    between atoms: _83  and  _85
REMARK   36  A    between atoms: _85  and  _86
REMARK   37  A    between atoms: _89  and  _91
REMARK   38  A    between atoms: _91  and  _92
REMARK   39  A    between atoms: _91  and  _94
REMARK   40  A    between atoms: _94  and  _95
REMARK   41  A    between atoms: _100  and  _102
REMARK   42  A    between atoms: _102  and  _103
REMARK   43  A    between atoms: _102  and  _105
REMARK   44  A    between atoms: _105  and  _106
REMARK   45  A    between atoms: _109  and  _111
REMARK   46  A    between atoms: _111  and  _112
REMARK   47  A    between atoms: _111  and  _114
REMARK   48  A    between atoms: _114  and  _115
REMARK   49  A    between atoms: _117  and  _119
REMARK   50  A    between atoms: _119  and  _120
REMARK   51  A    between atoms: _119  and  _122
REMARK   52  A    between atoms: _122  and  _123
REMARK   53  A    between atoms: _128  and  _130
REMARK   54  A    between atoms: _130  and  _131
REMARK   55  A    between atoms: _134  and  _136
REMARK   56  A    between atoms: _136  and  _137
REMARK   57  A    between atoms: _136  and  _139
REMARK   58  A    between atoms: _139  and  _140
REMARK   59  A    between atoms: _142  and  _144
REMARK   60  A    between atoms: _144  and  _145
REMARK   61  A    between atoms: _144  and  _147
REMARK   62  A    between atoms: _147  and  _148
REMARK   63  A    between atoms: _151  and  _153
REMARK   64  A    between atoms: _153  and  _154
REMARK   65  A    between atoms: _153  and  _156
REMARK   66  A    between atoms: _156  and  _157
REMARK   67  A    between atoms: _160  and  _162
REMARK   68  A    between atoms: _162  and  _163
REMARK   69  A    between atoms: _162  and  _165
REMARK   70  A    between atoms: _165  and  _166
REMARK   71  A    between atoms: _166  and  _167
REMARK   72  A    between atoms: _170  and  _172
REMARK   73  A    between atoms: _172  and  _173
REMARK   74  A    between atoms: _175  and  _177
REMARK   75  A    between atoms: _177  and  _178
REMARK   76  A    between atoms: _177  and  _180
REMARK   77  A    between atoms: _183  and  _185
REMARK   78  A    between atoms: _185  and  _186
REMARK   79  A    between atoms: _185  and  _188
REMARK   80  A    between atoms: _188  and  _189
REMARK   81  A    between atoms: _194  and  _195
REMARK   82  A    between atoms: _197  and  _199
REMARK   83  A    between atoms: _199  and  _200
REMARK   84  A    between atoms: _199  and  _202
REMARK   85  A    between atoms: _202  and  _203
REMARK   86  A    between atoms: _205  and  _207
REMARK   87  A    between atoms: _207  and  _208
REMARK   88  A    between atoms: _207  and  _210
REMARK   89  A    between atoms: _210  and  _211
REMARK   90  A    between atoms: _211  and  _212
REMARK   91  A    between atoms: _214  and  _216
REMARK   92  A    between atoms: _216  and  _217
REMARK   93  A    between atoms: _216  and  _219
REMARK   94  A    between atoms: _219  and  _220
REMARK   95  A    between atoms: _223  and  _225
REMARK   96  A    between atoms: _225  and  _226
REMARK   97  A    between atoms: _225  and  _228
REMARK   98  A    between atoms: _228  and  _229
REMARK   99  A    between atoms: _229  and  _230
REMARK  100  A    between atoms: _233  and  _235
REMARK  101  A    between atoms: _235  and  _236
REMARK  102  A    between atoms: _239  and  _241
REMARK  103  A    between atoms: _241  and  _242
REMARK  104  A    between atoms: _241  and  _244
REMARK  105  A    between atoms: _244  and  _245
REMARK  106  A    between atoms: _250  and  _252
REMARK  107  A    between atoms: _252  and  _253
REMARK  108  A    between atoms: _252  and  _255
REMARK  109  A    between atoms: _255  and  _256
REMARK  110  A    between atoms: _258  and  _260
REMARK  111  A    between atoms: _260  and  _261
REMARK  112  A    between atoms: _260  and  _263
REMARK  113  A    between atoms: _266  and  _268
REMARK  114  A    between atoms: _268  and  _269
REMARK  115  A    between atoms: _271  and  _273
REMARK  116  A    between atoms: _273  and  _274
REMARK  117  A    between atoms: _273  and  _276
REMARK  118  A    between atoms: _276  and  _277
REMARK  119  A    between atoms: _280  and  _282
REMARK  120  A    between atoms: _282  and  _283
REMARK  121  A    between atoms: _282  and  _285
REMARK  122  A    between atoms: _285  and  _286
REMARK  123  A    between atoms: _292  and  _294
REMARK  124  A    between atoms: _294  and  _295
REMARK  125  A    between atoms: _294  and  _297
REMARK  126  A    between atoms: _297  and  _298
REMARK  127  A    between atoms: _300  and  _302
REMARK  128  A    between atoms: _302  and  _303
REMARK  129  A    between atoms: _302  and  _305
REMARK  130  A    between atoms: _305  and  _306
REMARK  131  A    between atoms: _306  and  _307
REMARK  132  A    between atoms: _307  and  _308
REMARK  133  A    between atoms: _308  and  _309
REMARK  134  A    between atoms: _313  and  _315
REMARK  135  A    between atoms: _315  and  _316
REMARK  136  A    between atoms: _315  and  _318
REMARK  137  A    between atoms: _318  and  _319
REMARK  138  A    between atoms: _322  and  _324
REMARK  139  A    between atoms: _324  and  _325
REMARK  140  A    between atoms: _324  and  _327
REMARK  141  A    between atoms: _330  and  _332
REMARK  142  A    between atoms: _332  and  _333
REMARK  143  A    between atoms: _335  and  _337
REMARK  144  A    between atoms: _337  and  _338
REMARK  145  A    between atoms: _340  and  _342
REMARK  146  A    between atoms: _342  and  _343
REMARK  147  A    between atoms: _342  and  _345
REMARK  148  A    between atoms: _345  and  _346
REMARK  149  A    between atoms: _352  and  _354
REMARK  150  A    between atoms: _354  and  _355
REMARK  151  A    between atoms: _354  and  _357
REMARK  152  A    between atoms: _357  and  _358
REMARK  153  A    between atoms: _361  and  _363
REMARK  154  A    between atoms: _363  and  _364
REMARK  155  A    between atoms: _363  and  _366
REMARK  156  A    between atoms: _366  and  _367
REMARK  157  A    between atoms: _367  and  _368
REMARK  158  A    between atoms: _368  and  _369
REMARK  159  A    between atoms: _378  and  _380
REMARK  160  A    between atoms: _380  and  _381
REMARK  161  A    between atoms: _384  and  _386
REMARK  162  A    between atoms: _386  and  _387
REMARK  163  A    between atoms: _386  and  _389
REMARK  164  A    between atoms: _389  and  _390
REMARK  165  A    between atoms: _390  and  _391
REMARK  166  A    between atoms: _391  and  _392
REMARK  167  A    between atoms: _401  and  _403
REMARK  168  A    between atoms: _403  and  _404
REMARK  169  A    between atoms: _403  and  _406
REMARK  170  A    between atoms: _406  and  _407
REMARK  171  A    between atoms: _410  and  _412
REMARK  172  A    between atoms: _412  and  _413
REMARK  173  A    between atoms: _412  and  _415
REMARK  174  A    between atoms: _415  and  _416
REMARK  175  A    between atoms: _421  and  _423
REMARK  176  A    between atoms: _423  and  _424
REMARK  177  A    between atoms: _426  and  _428
REMARK  178  A    between atoms: _428  and  _429
REMARK  179  A    between atoms: _428  and  _431
REMARK  180  A    between atoms: _431  and  _432
REMARK  181  A    between atoms: _434  and  _436
REMARK  182  A    between atoms: _436  and  _437
REMARK  183  A    between atoms: _436  and  _439
REMARK  184  A    between atoms: _439  and  _440
REMARK  185  A    between atoms: _440  and  _441
REMARK  186  A    between atoms: _441  and  _442
REMARK  187  A    between atoms: _451  and  _453
REMARK  188  A    between atoms: _453  and  _454
REMARK  189  A    between atoms: _453  and  _456
REMARK  190  A    between atoms: _456  and  _457
REMARK  191  A    between atoms: _457  and  _458
REMARK  192  A    between atoms: _460  and  _462
REMARK  193  A    between atoms: _462  and  _463
REMARK  194  A    between atoms: _462  and  _465
REMARK  195  A    between atoms: _465  and  _466
REMARK  196  A    between atoms: _469  and  _471
REMARK  197  A    between atoms: _471  and  _472
REMARK  198  A    between atoms: _471  and  _474
REMARK  199  A    between atoms: _474  and  _475
REMARK  200  A    between atoms: _480  and  _482
REMARK  201  A    between atoms: _482  and  _483
REMARK  202  A    between atoms: _485  and  _487
REMARK  203  A    between atoms: _487  and  _488
REMARK  204  A    between atoms: _487  and  _490
REMARK  205  A    between atoms: _490  and  _491
REMARK  206  A    between atoms: _493  and  _495
REMARK  207  A    between atoms: _495  and  _496
REMARK  208  A    between atoms: _495  and  _498
REMARK  209  A    between atoms: _498  and  _499
REMARK  210  A    between atoms: _499  and  _500
REMARK  211  A    between atoms: _502  and  _504
REMARK  212  A    between atoms: _504  and  _505
REMARK  213  A    between atoms: _504  and  _507
REMARK  214  A    between atoms: _507  and  _508
REMARK  215  A    between atoms: _508  and  _509
REMARK  216  A    between atoms: _509  and  _510
REMARK  217  A    between atoms: _520  and  _521
REMARK  218  A    between atoms: _526  and  _528
REMARK  219  A    between atoms: _528  and  _529
REMARK  220  A    between atoms: _528  and  _531
REMARK  221  A    between atoms: _531  and  _532
REMARK  222  A    between atoms: _537  and  _538
REMARK  223  A    between atoms: _540  and  _542
REMARK  224  A    between atoms: _542  and  _543
REMARK  225  A    between atoms: _542  and  _545
REMARK  226  A    between atoms: _545  and  _546
REMARK  227  A    between atoms: _549  and  _551
REMARK  228  A    between atoms: _551  and  _552
REMARK  229  A    between atoms: _551  and  _554
REMARK  230  A    between atoms: _554  and  _555
REMARK  231  A    between atoms: _561  and  _563
REMARK  232  A    between atoms: _563  and  _564
REMARK  233  A    between atoms: _563  and  _566
REMARK  234  A    between atoms: _566  and  _567
REMARK  235  A    between atoms: _570  and  _572
REMARK  236  A    between atoms: _572  and  _573
REMARK  237  A    between atoms: _576  and  _578
REMARK  238  A    between atoms: _578  and  _579
REMARK  239  A    between atoms: _578  and  _581
REMARK  240  A    between atoms: _581  and  _582
REMARK                            x       y       z     vdW  Elec       q    Type
REMARK                         _______ _______ _______ _____ _____    ______ ____
ROOT
ATOM      1  O   HOH     1       5.391  17.068  39.869  0.00  0.00    +0.000 OA
ENDROOT
TORSDOF 0
REMARK  Name = ../refined-set-2016/2w8j/2w8j_pocket.pdb
REMARK  240 active torsions:
REMARK  status: ('A' for Active; 'I' for Inactive)
REMARK    1  A    between atoms: _1  and  _3
REMARK    2  A    between atoms: _3  and  _4
REMARK    3  A    between atoms: _3  and  _6
REMARK    4  A    between atoms: _6  and  _7
REMARK    5  A    between atoms: _10  and  _12
REMARK    6  A    between atoms: _12  and  _13
REMARK    7  A    between atoms: _12  and  _15
REMARK    8  A    between atoms: _15  and  _16
REMARK    9  A    between atoms: _21  and  _22
REMARK   10  A    between atoms: _24  and  _26
REMARK   11  A    between atoms: _26  and  _27
REMARK   12  A    between atoms: _26  and  _29
REMARK   13  A    between atoms: _29  and  _30
REMARK   14  A    between atoms: _35  and  _36
REMARK   15  A    between atoms: _38  and  _40
REMARK   16  A    between atoms: _40  and  _41
REMARK   17  A    between atoms: _40  and  _43
REMARK   18  A    between atoms: _43  and  _44
REMARK   19  A    between atoms: _46  and  _48
REMARK   20  A    between atoms: _48  and  _49
REMARK   21  A    between atoms: _48  and  _51
REMARK   22  A    between atoms: _51  and  _52
REMARK   23  A    between atoms: _55  and  _57
REMARK   24  A    between atoms: _57  and  _58
REMARK   25  A    between atoms: _60  and  _62
REMARK   26  A    between atoms: _62  and  _63
REMARK   27  A    between atoms: _62  and  _65
REMARK   28  A    between atoms: _65  and  _66
REMARK   29  A    between atoms: _71  and  _72
REMARK   30  A    between atoms: _74  and  _76
REMARK   31  A    between atoms: _76  and  _77
REMARK   32  A    between atoms: _76  and  _79
REMARK   33  A    between atoms: _79  and  _80
REMARK   34  A    between atoms: _80  and  _81
REMARK   35  A    between atoms: _83  and  _85
REMARK   36  A    between atoms: _85  and  _86
REMARK   37  A    between atoms: _89  and  _91
REMARK   38  A    between atoms: _91  and  _92
REMARK   39  A    between atoms: _91  and  _94
REMARK   40  A    between atoms: _94  and  _95
REMARK   41  A    between atoms: _100  and  _102
REMARK   42  A    between atoms: _102  and  _103
REMARK   43  A    between atoms: _102  and  _105
REMARK   44  A    between atoms: _105  and  _106
REMARK   45  A    between atoms: _109  and  _111
REMARK   46  A    between atoms: _111  and  _112
REMARK   47  A    between atoms: _111  and  _114
REMARK   48  A    between atoms: _114  and  _115
REMARK   49  A    between atoms: _117  and  _119
REMARK   50  A    between atoms: _119  and  _120
REMARK   51  A    between atoms: _119  and  _122
REMARK   52  A    between atoms: _122  and  _123
REMARK   53  A    between atoms: _128  and  _130
REMARK   54  A    between atoms: _130  and  _131
REMARK   55  A    between atoms: _134  and  _136
REMARK   56  A    between atoms: _136  and  _137
REMARK   57  A    between atoms: _136  and  _139
REMARK   58  A    between atoms: _139  and  _140
REMARK   59  A    between atoms: _142  and  _144
REMARK   60  A    between atoms: _144  and  _145
REMARK   61  A    between atoms: _144  and  _147
REMARK   62  A    between atoms: _147  and  _148
REMARK   63  A    between atoms: _151  and  _153
REMARK   64  A    between atoms: _153  and  _154
REMARK   65  A    between atoms: _153  and  _156
REMARK   66  A    between atoms: _156  and  _157
REMARK   67  A    between atoms: _160  and  _162
REMARK   68  A    between atoms: _162  and  _163
REMARK   69  A    between atoms: _162  and  _165
REMARK   70  A    between atoms: _165  and  _166
REMARK   71  A    between atoms: _166  and  _167
REMARK   72  A    between atoms: _170  and  _172
REMARK   73  A    between atoms: _172  and  _173
REMARK   74  A    between atoms: _175  and  _177
REMARK   75  A    between atoms: _177  and  _178
REMARK   76  A    between atoms: _177  and  _180
REMARK   77  A    between atoms: _183  and  _185
REMARK   78  A    between atoms: _185  and  _186
REMARK   79  A    between atoms: _185  and  _188
REMARK   80  A    between atoms: _188  and  _189
REMARK   81  A    between atoms: _194  and  _195
REMARK   82  A    between atoms: _197  and  _199
REMARK   83  A    between atoms: _199  and  _200
REMARK   84  A    between atoms: _199  and  _202
REMARK   85  A    between atoms: _202  and  _203
REMARK   86  A    between atoms: _205  and  _207
REMARK   87  A    between atoms: _207  and  _208
REMARK   88  A    between atoms: _207  and  _210
REMARK   89  A    between atoms: _210  and  _211
REMARK   90  A    between atoms: _211  and  _212
REMARK   91  A    between atoms: _214  and  _216
REMARK   92  A    between atoms: _216  and  _217
REMARK   93  A    between atoms: _216  and  _219
REMARK   94  A    between atoms: _219  and  _220
REMARK   95  A    between atoms: _223  and  _225
REMARK   96  A    between atoms: _225  and  _226
REMARK   97  A    between atoms: _225  and  _228
REMARK   98  A    between atoms: _228  and  _229
REMARK   99  A    between atoms: _229  and  _230
REMARK  100  A    between atoms: _233  and  _235
REMARK  101  A    between atoms: _235  and  _236
REMARK  102  A    between atoms: _239  and  _241
REMARK  103  A    between atoms: _241  and  _242
REMARK  104  A    between atoms: _241  and  _244
REMARK  105  A    between atoms: _244  and  _245
REMARK  106  A    between atoms: _250  and  _252
REMARK  107  A    between atoms: _252  and  _253
REMARK  108  A    between atoms: _252  and  _255
REMARK  109  A    between atoms: _255  and  _256
REMARK  110  A    between atoms: _258  and  _260
REMARK  111  A    between atoms: _260  and  _261
REMARK  112  A    between atoms: _260  and  _263
REMARK  113  A    between atoms: _266  and  _268
REMARK  114  A    between atoms: _268  and  _269
REMARK  115  A    between atoms: _271  and  _273
REMARK  116  A    between atoms: _273  and  _274
REMARK  117  A    between atoms: _273  and  _276
REMARK  118  A    between atoms: _276  and  _277
REMARK  119  A    between atoms: _280  and  _282
REMARK  120  A    between atoms: _282  and  _283
REMARK  121  A    between atoms: _282  and  _285
REMARK  122  A    between atoms: _285  and  _286
REMARK  123  A    between atoms: _292  and  _294
REMARK  124  A    between atoms: _294  and  _295
REMARK  125  A    between atoms: _294  and  _297
REMARK  126  A    between atoms: _297  and  _298
REMARK  127  A    between atoms: _300  and  _302
REMARK  128  A    between atoms: _302  and  _303
REMARK  129  A    between atoms: _302  and  _305
REMARK  130  A    between atoms: _305  and  _306
REMARK  131  A    between atoms: _306  and  _307
REMARK  132  A    between atoms: _307  and  _308
REMARK  133  A    between atoms: _308  and  _309
REMARK  134  A    between atoms: _313  and  _315
REMARK  135  A    between atoms: _315  and  _316
REMARK  136  A    between atoms: _315  and  _318
REMARK  137  A    between atoms: _318  and  _319
REMARK  138  A    between atoms: _322  and  _324
REMARK  139  A    between atoms: _324  and  _325
REMARK  140  A    between atoms: _324  and  _327
REMARK  141  A    between atoms: _330  and  _332
REMARK  142  A    between atoms: _332  and  _333
REMARK  143  A    between atoms: _335  and  _337
REMARK  144  A    between atoms: _337  and  _338
REMARK  145  A    between atoms: _340  and  _342
REMARK  146  A    between atoms: _342  and  _343
REMARK  147  A    between atoms: _342  and  _345
REMARK  148  A    between atoms: _345  and  _346
REMARK  149  A    between atoms: _352  and  _354
REMARK  150  A    between atoms: _354  and  _355
REMARK  151  A    between atoms: _354  and  _357
REMARK  152  A    between atoms: _357  and  _358
REMARK  153  A    between atoms: _361  and  _363
REMARK  154  A    between atoms: _363  and  _364
REMARK  155  A    between atoms: _363  and  _366
REMARK  156  A    between atoms: _366  and  _367
REMARK  157  A    between atoms: _367  and  _368
REMARK  158  A    between atoms: _368  and  _369
REMARK  159  A    between atoms: _378  and  _380
REMARK  160  A    between atoms: _380  and  _381
REMARK  161  A    between atoms: _384  and  _386
REMARK  162  A    between atoms: _386  and  _387
REMARK  163  A    between atoms: _386  and  _389
REMARK  164  A    between atoms: _389  and  _390
REMARK  165  A    between atoms: _390  and  _391
REMARK  166  A    between atoms: _391  and  _392
REMARK  167  A    between atoms: _401  and  _403
REMARK  168  A    between atoms: _403  and  _404
REMARK  169  A    between atoms: _403  and  _406
REMARK  170  A    between atoms: _406  and  _407
REMARK  171  A    between atoms: _410  and  _412
REMARK  172  A    between atoms: _412  and  _413
REMARK  173  A    between atoms: _412  and  _415
REMARK  174  A    between atoms: _415  and  _416
REMARK  175  A    between atoms: _421  and  _423
REMARK  176  A    between atoms: _423  and  _424
REMARK  177  A    between atoms: _426  and  _428
REMARK  178  A    between atoms: _428  and  _429
REMARK  179  A    between atoms: _428  and  _431
REMARK  180  A    between atoms: _431  and  _432
REMARK  181  A    between atoms: _434  and  _436
REMARK  182  A    between atoms: _436  and  _437
REMARK  183  A    between atoms: _436  and  _439
REMARK  184  A    between atoms: _439  and  _440
REMARK  185  A    between atoms: _440  and  _441
REMARK  186  A    between atoms: _441  and  _442
REMARK  187  A    between atoms: _451  and  _453
REMARK  188  A    between atoms: _453  and  _454
REMARK  189  A    between atoms: _453  and  _456
REMARK  190  A    between atoms: _456  and  _457
REMARK  191  A    between atoms: _457  and  _458
REMARK  192  A    between atoms: _460  and  _462
REMARK  193  A    between atoms: _462  and  _463
REMARK  194  A    between atoms: _462  and  _465
REMARK  195  A    between atoms: _465  and  _466
REMARK  196  A    between atoms: _469  and  _471
REMARK  197  A    between atoms: _471  and  _472
REMARK  198  A    between atoms: _471  and  _474
REMARK  199  A    between atoms: _474  and  _475
REMARK  200  A    between atoms: _480  and  _482
REMARK  201  A    between atoms: _482  and  _483
REMARK  202  A    between atoms: _485  and  _487
REMARK  203  A    between atoms: _487  and  _488
REMARK  204  A    between atoms: _487  and  _490
REMARK  205  A    between atoms: _490  and  _491
REMARK  206  A    between atoms: _493  and  _495
REMARK  207  A    between atoms: _495  and  _496
REMARK  208  A    between atoms: _495  and  _498
REMARK  209  A    between atoms: _498  and  _499
REMARK  210  A    between atoms: _499  and  _500
REMARK  211  A    between atoms: _502  and  _504
REMARK  212  A    between atoms: _504  and  _505
REMARK  213  A    between atoms: _504  and  _507
REMARK  214  A    between atoms: _507  and  _508
REMARK  215  A    between atoms: _508  and  _509
REMARK  216  A    between atoms: _509  and  _510
REMARK  217  A    between atoms: _520  and  _521
REMARK  218  A    between atoms: _526  and  _528
REMARK  219  A    between atoms: _528  and  _529
REMARK  220  A    between atoms: _528  and  _531
REMARK  221  A    between atoms: _531  and  _532
REMARK  222  A    between atoms: _537  and  _538
REMARK  223  A    between atoms: _540  and  _542
REMARK  224  A    between atoms: _542  and  _543
REMARK  225  A    between atoms: _542  and  _545
REMARK  226  A    between atoms: _545  and  _546
REMARK  227  A    between atoms: _549  and  _551
REMARK  228  A    between atoms: _551  and  _552
REMARK  229  A    between atoms: _551  and  _554
REMARK  230  A    between atoms: _554  and  _555
REMARK  231  A    between atoms: _561  and  _563
REMARK  232  A    between atoms: _563  and  _564
REMARK  233  A    between atoms: _563  and  _566
REMARK  234  A    between atoms: _566  and  _567
REMARK  235  A    between atoms: _570  and  _572
REMARK  236  A    between atoms: _572  and  _573
REMARK  237  A    between atoms: _576  and  _578
REMARK  238  A    between atoms: _578  and  _579
REMARK  239  A    between atoms: _578  and  _581
REMARK  240  A    between atoms: _581  and  _582
REMARK                            x       y       z     vdW  Elec       q    Type
REMARK                         _______ _______ _______ _____ _____    ______ ____
ROOT
ATOM      1  O   HOH     1       4.403  19.886  26.387  0.00  0.00    +0.000 OA
ENDROOT
TORSDOF 0
REMARK  Name = ../refined-set-2016/2w8j/2w8j_pocket.pdb
REMARK  240 active torsions:
REMARK  status: ('A' for Active; 'I' for Inactive)
REMARK    1  A    between atoms: _1  and  _3
REMARK    2  A    between atoms: _3  and  _4
REMARK    3  A    between atoms: _3  and  _6
REMARK    4  A    between atoms: _6  and  _7
REMARK    5  A    between atoms: _10  and  _12
REMARK    6  A    between atoms: _12  and  _13
REMARK    7  A    between atoms: _12  and  _15
REMARK    8  A    between atoms: _15  and  _16
REMARK    9  A    between atoms: _21  and  _22
REMARK   10  A    between atoms: _24  and  _26
REMARK   11  A    between atoms: _26  and  _27
REMARK   12  A    between atoms: _26  and  _29
REMARK   13  A    between atoms: _29  and  _30
REMARK   14  A    between atoms: _35  and  _36
REMARK   15  A    between atoms: _38  and  _40
REMARK   16  A    between atoms: _40  and  _41
REMARK   17  A    between atoms: _40  and  _43
REMARK   18  A    between atoms: _43  and  _44
REMARK   19  A    between atoms: _46  and  _48
REMARK   20  A    between atoms: _48  and  _49
REMARK   21  A    between atoms: _48  and  _51
REMARK   22  A    between atoms: _51  and  _52
REMARK   23  A    between atoms: _55  and  _57
REMARK   24  A    between atoms: _57  and  _58
REMARK   25  A    between atoms: _60  and  _62
REMARK   26  A    between atoms: _62  and  _63
REMARK   27  A    between atoms: _62  and  _65
REMARK   28  A    between atoms: _65  and  _66
REMARK   29  A    between atoms: _71  and  _72
REMARK   30  A    between atoms: _74  and  _76
REMARK   31  A    between atoms: _76  and  _77
REMARK   32  A    between atoms: _76  and  _79
REMARK   33  A    between atoms: _79  and  _80
REMARK   34  A    between atoms: _80  and  _81
REMARK   35  A    between atoms: _83  and  _85
REMARK   36  A    between atoms: _85  and  _86
REMARK   37  A    between atoms: _89  and  _91
REMARK   38  A    between atoms: _91  and  _92
REMARK   39  A    between atoms: _91  and  _94
REMARK   40  A    between atoms: _94  and  _95
REMARK   41  A    between atoms: _100  and  _102
REMARK   42  A    between atoms: _102  and  _103
REMARK   43  A    between atoms: _102  and  _105
REMARK   44  A    between atoms: _105  and  _106
REMARK   45  A    between atoms: _109  and  _111
REMARK   46  A    between atoms: _111  and  _112
REMARK   47  A    between atoms: _111  and  _114
REMARK   48  A    between atoms: _114  and  _115
REMARK   49  A    between atoms: _117  and  _119
REMARK   50  A    between atoms: _119  and  _120
REMARK   51  A    between atoms: _119  and  _122
REMARK   52  A    between atoms: _122  and  _123
REMARK   53  A    between atoms: _128  and  _130
REMARK   54  A    between atoms: _130  and  _131
REMARK   55  A    between atoms: _134  and  _136
REMARK   56  A    between atoms: _136  and  _137
REMARK   57  A    between atoms: _136  and  _139
REMARK   58  A    between atoms: _139  and  _140
REMARK   59  A    between atoms: _142  and  _144
REMARK   60  A    between atoms: _144  and  _145
REMARK   61  A    between atoms: _144  and  _147
REMARK   62  A    between atoms: _147  and  _148
REMARK   63  A    between atoms: _151  and  _153
REMARK   64  A    between atoms: _153  and  _154
REMARK   65  A    between atoms: _153  and  _156
REMARK   66  A    between atoms: _156  and  _157
REMARK   67  A    between atoms: _160  and  _162
REMARK   68  A    between atoms: _162  and  _163
REMARK   69  A    between atoms: _162  and  _165
REMARK   70  A    between atoms: _165  and  _166
REMARK   71  A    between atoms: _166  and  _167
REMARK   72  A    between atoms: _170  and  _172
REMARK   73  A    between atoms: _172  and  _173
REMARK   74  A    between atoms: _175  and  _177
REMARK   75  A    between atoms: _177  and  _178
REMARK   76  A    between atoms: _177  and  _180
REMARK   77  A    between atoms: _183  and  _185
REMARK   78  A    between atoms: _185  and  _186
REMARK   79  A    between atoms: _185  and  _188
REMARK   80  A    between atoms: _188  and  _189
REMARK   81  A    between atoms: _194  and  _195
REMARK   82  A    between atoms: _197  and  _199
REMARK   83  A    between atoms: _199  and  _200
REMARK   84  A    between atoms: _199  and  _202
REMARK   85  A    between atoms: _202  and  _203
REMARK   86  A    between atoms: _205  and  _207
REMARK   87  A    between atoms: _207  and  _208
REMARK   88  A    between atoms: _207  and  _210
REMARK   89  A    between atoms: _210  and  _211
REMARK   90  A    between atoms: _211  and  _212
REMARK   91  A    between atoms: _214  and  _216
REMARK   92  A    between atoms: _216  and  _217
REMARK   93  A    between atoms: _216  and  _219
REMARK   94  A    between atoms: _219  and  _220
REMARK   95  A    between atoms: _223  and  _225
REMARK   96  A    between atoms: _225  and  _226
REMARK   97  A    between atoms: _225  and  _228
REMARK   98  A    between atoms: _228  and  _229
REMARK   99  A    between atoms: _229  and  _230
REMARK  100  A    between atoms: _233  and  _235
REMARK  101  A    between atoms: _235  and  _236
REMARK  102  A    between atoms: _239  and  _241
REMARK  103  A    between atoms: _241  and  _242
REMARK  104  A    between atoms: _241  and  _244
REMARK  105  A    between atoms: _244  and  _245
REMARK  106  A    between atoms: _250  and  _252
REMARK  107  A    between atoms: _252  and  _253
REMARK  108  A    between atoms: _252  and  _255
REMARK  109  A    between atoms: _255  and  _256
REMARK  110  A    between atoms: _258  and  _260
REMARK  111  A    between atoms: _260  and  _261
REMARK  112  A    between atoms: _260  and  _263
REMARK  113  A    between atoms: _266  and  _268
REMARK  114  A    between atoms: _268  and  _269
REMARK  115  A    between atoms: _271  and  _273
REMARK  116  A    between atoms: _273  and  _274
REMARK  117  A    between atoms: _273  and  _276
REMARK  118  A    between atoms: _276  and  _277
REMARK  119  A    between atoms: _280  and  _282
REMARK  120  A    between atoms: _282  and  _283
REMARK  121  A    between atoms: _282  and  _285
REMARK  122  A    between atoms: _285  and  _286
REMARK  123  A    between atoms: _292  and  _294
REMARK  124  A    between atoms: _294  and  _295
REMARK  125  A    between atoms: _294  and  _297
REMARK  126  A    between atoms: _297  and  _298
REMARK  127  A    between atoms: _300  and  _302
REMARK  128  A    between atoms: _302  and  _303
REMARK  129  A    between atoms: _302  and  _305
REMARK  130  A    between atoms: _305  and  _306
REMARK  131  A    between atoms: _306  and  _307
REMARK  132  A    between atoms: _307  and  _308
REMARK  133  A    between atoms: _308  and  _309
REMARK  134  A    between atoms: _313  and  _315
REMARK  135  A    between atoms: _315  and  _316
REMARK  136  A    between atoms: _315  and  _318
REMARK  137  A    between atoms: _318  and  _319
REMARK  138  A    between atoms: _322  and  _324
REMARK  139  A    between atoms: _324  and  _325
REMARK  140  A    between atoms: _324  and  _327
REMARK  141  A    between atoms: _330  and  _332
REMARK  142  A    between atoms: _332  and  _333
REMARK  143  A    between atoms: _335  and  _337
REMARK  144  A    between atoms: _337  and  _338
REMARK  145  A    between atoms: _340  and  _342
REMARK  146  A    between atoms: _342  and  _343
REMARK  147  A    between atoms: _342  and  _345
REMARK  148  A    between atoms: _345  and  _346
REMARK  149  A    between atoms: _352  and  _354
REMARK  150  A    between atoms: _354  and  _355
REMARK  151  A    between atoms: _354  and  _357
REMARK  152  A    between atoms: _357  and  _358
REMARK  153  A    between atoms: _361  and  _363
REMARK  154  A    between atoms: _363  and  _364
REMARK  155  A    between atoms: _363  and  _366
REMARK  156  A    between atoms: _366  and  _367
REMARK  157  A    between atoms: _367  and  _368
REMARK  158  A    between atoms: _368  and  _369
REMARK  159  A    between atoms: _378  and  _380
REMARK  160  A    between atoms: _380  and  _381
REMARK  161  A    between atoms: _384  and  _386
REMARK  162  A    between atoms: _386  and  _387
REMARK  163  A    between atoms: _386  and  _389
REMARK  164  A    between atoms: _389  and  _390
REMARK  165  A    between atoms: _390  and  _391
REMARK  166  A    between atoms: _391  and  _392
REMARK  167  A    between atoms: _401  and  _403
REMARK  168  A    between atoms: _403  and  _404
REMARK  169  A    between atoms: _403  and  _406
REMARK  170  A    between atoms: _406  and  _407
REMARK  171  A    between atoms: _410  and  _412
REMARK  172  A    between atoms: _412  and  _413
REMARK  173  A    between atoms: _412  and  _415
REMARK  174  A    between atoms: _415  and  _416
REMARK  175  A    between atoms: _421  and  _423
REMARK  176  A    between atoms: _423  and  _424
REMARK  177  A    between atoms: _426  and  _428
REMARK  178  A    between atoms: _428  and  _429
REMARK  179  A    between atoms: _428  and  _431
REMARK  180  A    between atoms: _431  and  _432
REMARK  181  A    between atoms: _434  and  _436
REMARK  182  A    between atoms: _436  and  _437
REMARK  183  A    between atoms: _436  and  _439
REMARK  184  A    between atoms: _439  and  _440
REMARK  185  A    between atoms: _440  and  _441
REMARK  186  A    between atoms: _441  and  _442
REMARK  187  A    between atoms: _451  and  _453
REMARK  188  A    between atoms: _453  and  _454
REMARK  189  A    between atoms: _453  and  _456
REMARK  190  A    between atoms: _456  and  _457
REMARK  191  A    between atoms: _457  and  _458
REMARK  192  A    between atoms: _460  and  _462
REMARK  193  A    between atoms: _462  and  _463
REMARK  194  A    between atoms: _462  and  _465
REMARK  195  A    between atoms: _465  and  _466
REMARK  196  A    between atoms: _469  and  _471
REMARK  197  A    between atoms: _471  and  _472
REMARK  198  A    between atoms: _471  and  _474
REMARK  199  A    between atoms: _474  and  _475
REMARK  200  A    between atoms: _480  and  _482
REMARK  201  A    between atoms: _482  and  _483
REMARK  202  A    between atoms: _485  and  _487
REMARK  203  A    between atoms: _487  and  _488
REMARK  204  A    between atoms: _487  and  _490
REMARK  205  A    between atoms: _490  and  _491
REMARK  206  A    between atoms: _493  and  _495
REMARK  207  A    between atoms: _495  and  _496
REMARK  208  A    between atoms: _495  and  _498
REMARK  209  A    between atoms: _498  and  _499
REMARK  210  A    between atoms: _499  and  _500
REMARK  211  A    between atoms: _502  and  _504
REMARK  212  A    between atoms: _504  and  _505
REMARK  213  A    between atoms: _504  and  _507
REMARK  214  A    between atoms: _507  and  _508
REMARK  215  A    between atoms: _508  and  _509
REMARK  216  A    between atoms: _509  and  _510
REMARK  217  A    between atoms: _520  and  _521
REMARK  218  A    between atoms: _526  and  _528
REMARK  219  A    between atoms: _528  and  _529
REMARK  220  A    between atoms: _528  and  _531
REMARK  221  A    between atoms: _531  and  _532
REMARK  222  A    between atoms: _537  and  _538
REMARK  223  A    between atoms: _540  and  _542
REMARK  224  A    between atoms: _542  and  _543
REMARK  225  A    between atoms: _542  and  _545
REMARK  226  A    between atoms: _545  and  _546
REMARK  227  A    between atoms: _549  and  _551
REMARK  228  A    between atoms: _551  and  _552
REMARK  229  A    between atoms: _551  and  _554
REMARK  230  A    between atoms: _554  and  _555
REMARK  231  A    between atoms: _561  and  _563
REMARK  232  A    between atoms: _563  and  _564
REMARK  233  A    between atoms: _563  and  _566
REMARK  234  A    between atoms: _566  and  _567
REMARK  235  A    between atoms: _570  and  _572
REMARK  236  A    between atoms: _572  and  _573
REMARK  237  A    between atoms: _576  and  _578
REMARK  238  A    between atoms: _578  and  _579
REMARK  239  A    between atoms: _578  and  _581
REMARK  240  A    between atoms: _581  and  _582
REMARK                            x       y       z     vdW  Elec       q    Type
REMARK                         _______ _______ _______ _____ _____    ______ ____
ROOT
ATOM      1  O   HOH     1       7.493  16.115  36.633  0.00  0.00    +0.000 OA
ENDROOT
TORSDOF 0
REMARK  Name = ../refined-set-2016/2w8j/2w8j_pocket.pdb
REMARK  240 active torsions:
REMARK  status: ('A' for Active; 'I' for Inactive)
REMARK    1  A    between atoms: _1  and  _3
REMARK    2  A    between atoms: _3  and  _4
REMARK    3  A    between atoms: _3  and  _6
REMARK    4  A    between atoms: _6  and  _7
REMARK    5  A    between atoms: _10  and  _12
REMARK    6  A    between atoms: _12  and  _13
REMARK    7  A    between atoms: _12  and  _15
REMARK    8  A    between atoms: _15  and  _16
REMARK    9  A    between atoms: _21  and  _22
REMARK   10  A    between atoms: _24  and  _26
REMARK   11  A    between atoms: _26  and  _27
REMARK   12  A    between atoms: _26  and  _29
REMARK   13  A    between atoms: _29  and  _30
REMARK   14  A    between atoms: _35  and  _36
REMARK   15  A    between atoms: _38  and  _40
REMARK   16  A    between atoms: _40  and  _41
REMARK   17  A    between atoms: _40  and  _43
REMARK   18  A    between atoms: _43  and  _44
REMARK   19  A    between atoms: _46  and  _48
REMARK   20  A    between atoms: _48  and  _49
REMARK   21  A    between atoms: _48  and  _51
REMARK   22  A    between atoms: _51  and  _52
REMARK   23  A    between atoms: _55  and  _57
REMARK   24  A    between atoms: _57  and  _58
REMARK   25  A    between atoms: _60  and  _62
REMARK   26  A    between atoms: _62  and  _63
REMARK   27  A    between atoms: _62  and  _65
REMARK   28  A    between atoms: _65  and  _66
REMARK   29  A    between atoms: _71  and  _72
REMARK   30  A    between atoms: _74  and  _76
REMARK   31  A    between atoms: _76  and  _77
REMARK   32  A    between atoms: _76  and  _79
REMARK   33  A    between atoms: _79  and  _80
REMARK   34  A    between atoms: _80  and  _81
REMARK   35  A    between atoms: _83  and  _85
REMARK   36  A    between atoms: _85  and  _86
REMARK   37  A    between atoms: _89  and  _91
REMARK   38  A    between atoms: _91  and  _92
REMARK   39  A    between atoms: _91  and  _94
REMARK   40  A    between atoms: _94  and  _95
REMARK   41  A    between atoms: _100  and  _102
REMARK   42  A    between atoms: _102  and  _103
REMARK   43  A    between atoms: _102  and  _105
REMARK   44  A    between atoms: _105  and  _106
REMARK   45  A    between atoms: _109  and  _111
REMARK   46  A    between atoms: _111  and  _112
REMARK   47  A    between atoms: _111  and  _114
REMARK   48  A    between atoms: _114  and  _115
REMARK   49  A    between atoms: _117  and  _119
REMARK   50  A    between atoms: _119  and  _120
REMARK   51  A    between atoms: _119  and  _122
REMARK   52  A    between atoms: _122  and  _123
REMARK   53  A    between atoms: _128  and  _130
REMARK   54  A    between atoms: _130  and  _131
REMARK   55  A    between atoms: _134  and  _136
REMARK   56  A    between atoms: _136  and  _137
REMARK   57  A    between atoms: _136  and  _139
REMARK   58  A    between atoms: _139  and  _140
REMARK   59  A    between atoms: _142  and  _144
REMARK   60  A    between atoms: _144  and  _145
REMARK   61  A    between atoms: _144  and  _147
REMARK   62  A    between atoms: _147  and  _148
REMARK   63  A    between atoms: _151  and  _153
REMARK   64  A    between atoms: _153  and  _154
REMARK   65  A    between atoms: _153  and  _156
REMARK   66  A    between atoms: _156  and  _157
REMARK   67  A    between atoms: _160  and  _162
REMARK   68  A    between atoms: _162  and  _163
REMARK   69  A    between atoms: _162  and  _165
REMARK   70  A    between atoms: _165  and  _166
REMARK   71  A    between atoms: _166  and  _167
REMARK   72  A    between atoms: _170  and  _172
REMARK   73  A    between atoms: _172  and  _173
REMARK   74  A    between atoms: _175  and  _177
REMARK   75  A    between atoms: _177  and  _178
REMARK   76  A    between atoms: _177  and  _180
REMARK   77  A    between atoms: _183  and  _185
REMARK   78  A    between atoms: _185  and  _186
REMARK   79  A    between atoms: _185  and  _188
REMARK   80  A    between atoms: _188  and  _189
REMARK   81  A    between atoms: _194  and  _195
REMARK   82  A    between atoms: _197  and  _199
REMARK   83  A    between atoms: _199  and  _200
REMARK   84  A    between atoms: _199  and  _202
REMARK   85  A    between atoms: _202  and  _203
REMARK   86  A    between atoms: _205  and  _207
REMARK   87  A    between atoms: _207  and  _208
REMARK   88  A    between atoms: _207  and  _210
REMARK   89  A    between atoms: _210  and  _211
REMARK   90  A    between atoms: _211  and  _212
REMARK   91  A    between atoms: _214  and  _216
REMARK   92  A    between atoms: _216  and  _217
REMARK   93  A    between atoms: _216  and  _219
REMARK   94  A    between atoms: _219  and  _220
REMARK   95  A    between atoms: _223  and  _225
REMARK   96  A    between atoms: _225  and  _226
REMARK   97  A    between atoms: _225  and  _228
REMARK   98  A    between atoms: _228  and  _229
REMARK   99  A    between atoms: _229  and  _230
REMARK  100  A    between atoms: _233  and  _235
REMARK  101  A    between atoms: _235  and  _236
REMARK  102  A    between atoms: _239  and  _241
REMARK  103  A    between atoms: _241  and  _242
REMARK  104  A    between atoms: _241  and  _244
REMARK  105  A    between atoms: _244  and  _245
REMARK  106  A    between atoms: _250  and  _252
REMARK  107  A    between atoms: _252  and  _253
REMARK  108  A    between atoms: _252  and  _255
REMARK  109  A    between atoms: _255  and  _256
REMARK  110  A    between atoms: _258  and  _260
REMARK  111  A    between atoms: _260  and  _261
REMARK  112  A    between atoms: _260  and  _263
REMARK  113  A    between atoms: _266  and  _268
REMARK  114  A    between atoms: _268  and  _269
REMARK  115  A    between atoms: _271  and  _273
REMARK  116  A    between atoms: _273  and  _274
REMARK  117  A    between atoms: _273  and  _276
REMARK  118  A    between atoms: _276  and  _277
REMARK  119  A    between atoms: _280  and  _282
REMARK  120  A    between atoms: _282  and  _283
REMARK  121  A    between atoms: _282  and  _285
REMARK  122  A    between atoms: _285  and  _286
REMARK  123  A    between atoms: _292  and  _294
REMARK  124  A    between atoms: _294  and  _295
REMARK  125  A    between atoms: _294  and  _297
REMARK  126  A    between atoms: _297  and  _298
REMARK  127  A    between atoms: _300  and  _302
REMARK  128  A    between atoms: _302  and  _303
REMARK  129  A    between atoms: _302  and  _305
REMARK  130  A    between atoms: _305  and  _306
REMARK  131  A    between atoms: _306  and  _307
REMARK  132  A    between atoms: _307  and  _308
REMARK  133  A    between atoms: _308  and  _309
REMARK  134  A    between atoms: _313  and  _315
REMARK  135  A    between atoms: _315  and  _316
REMARK  136  A    between atoms: _315  and  _318
REMARK  137  A    between atoms: _318  and  _319
REMARK  138  A    between atoms: _322  and  _324
REMARK  139  A    between atoms: _324  and  _325
REMARK  140  A    between atoms: _324  and  _327
REMARK  141  A    between atoms: _330  and  _332
REMARK  142  A    between atoms: _332  and  _333
REMARK  143  A    between atoms: _335  and  _337
REMARK  144  A    between atoms: _337  and  _338
REMARK  145  A    between atoms: _340  and  _342
REMARK  146  A    between atoms: _342  and  _343
REMARK  147  A    between atoms: _342  and  _345
REMARK  148  A    between atoms: _345  and  _346
REMARK  149  A    between atoms: _352  and  _354
REMARK  150  A    between atoms: _354  and  _355
REMARK  151  A    between atoms: _354  and  _357
REMARK  152  A    between atoms: _357  and  _358
REMARK  153  A    between atoms: _361  and  _363
REMARK  154  A    between atoms: _363  and  _364
REMARK  155  A    between atoms: _363  and  _366
REMARK  156  A    between atoms: _366  and  _367
REMARK  157  A    between atoms: _367  and  _368
REMARK  158  A    between atoms: _368  and  _369
REMARK  159  A    between atoms: _378  and  _380
REMARK  160  A    between atoms: _380  and  _381
REMARK  161  A    between atoms: _384  and  _386
REMARK  162  A    between atoms: _386  and  _387
REMARK  163  A    between atoms: _386  and  _389
REMARK  164  A    between atoms: _389  and  _390
REMARK  165  A    between atoms: _390  and  _391
REMARK  166  A    between atoms: _391  and  _392
REMARK  167  A    between atoms: _401  and  _403
REMARK  168  A    between atoms: _403  and  _404
REMARK  169  A    between atoms: _403  and  _406
REMARK  170  A    between atoms: _406  and  _407
REMARK  171  A    between atoms: _410  and  _412
REMARK  172  A    between atoms: _412  and  _413
REMARK  173  A    between atoms: _412  and  _415
REMARK  174  A    between atoms: _415  and  _416
REMARK  175  A    between atoms: _421  and  _423
REMARK  176  A    between atoms: _423  and  _424
REMARK  177  A    between atoms: _426  and  _428
REMARK  178  A    between atoms: _428  and  _429
REMARK  179  A    between atoms: _428  and  _431
REMARK  180  A    between atoms: _431  and  _432
REMARK  181  A    between atoms: _434  and  _436
REMARK  182  A    between atoms: _436  and  _437
REMARK  183  A    between atoms: _436  and  _439
REMARK  184  A    between atoms: _439  and  _440
REMARK  185  A    between atoms: _440  and  _441
REMARK  186  A    between atoms: _441  and  _442
REMARK  187  A    between atoms: _451  and  _453
REMARK  188  A    between atoms: _453  and  _454
REMARK  189  A    between atoms: _453  and  _456
REMARK  190  A    between atoms: _456  and  _457
REMARK  191  A    between atoms: _457  and  _458
REMARK  192  A    between atoms: _460  and  _462
REMARK  193  A    between atoms: _462  and  _463
REMARK  194  A    between atoms: _462  and  _465
REMARK  195  A    between atoms: _465  and  _466
REMARK  196  A    between atoms: _469  and  _471
REMARK  197  A    between atoms: _471  and  _472
REMARK  198  A    between atoms: _471  and  _474
REMARK  199  A    between atoms: _474  and  _475
REMARK  200  A    between atoms: _480  and  _482
REMARK  201  A    between atoms: _482  and  _483
REMARK  202  A    between atoms: _485  and  _487
REMARK  203  A    between atoms: _487  and  _488
REMARK  204  A    between atoms: _487  and  _490
REMARK  205  A    between atoms: _490  and  _491
REMARK  206  A    between atoms: _493  and  _495
REMARK  207  A    between atoms: _495  and  _496
REMARK  208  A    between atoms: _495  and  _498
REMARK  209  A    between atoms: _498  and  _499
REMARK  210  A    between atoms: _499  and  _500
REMARK  211  A    between atoms: _502  and  _504
REMARK  212  A    between atoms: _504  and  _505
REMARK  213  A    between atoms: _504  and  _507
REMARK  214  A    between atoms: _507  and  _508
REMARK  215  A    between atoms: _508  and  _509
REMARK  216  A    between atoms: _509  and  _510
REMARK  217  A    between atoms: _520  and  _521
REMARK  218  A    between atoms: _526  and  _528
REMARK  219  A    between atoms: _528  and  _529
REMARK  220  A    between atoms: _528  and  _531
REMARK  221  A    between atoms: _531  and  _532
REMARK  222  A    between atoms: _537  and  _538
REMARK  223  A    between atoms: _540  and  _542
REMARK  224  A    between atoms: _542  and  _543
REMARK  225  A    between atoms: _542  and  _545
REMARK  226  A    between atoms: _545  and  _546
REMARK  227  A    between atoms: _549  and  _551
REMARK  228  A    between atoms: _551  and  _552
REMARK  229  A    between atoms: _551  and  _554
REMARK  230  A    between atoms: _554  and  _555
REMARK  231  A    between atoms: _561  and  _563
REMARK  232  A    between atoms: _563  and  _564
REMARK  233  A    between atoms: _563  and  _566
REMARK  234  A    between atoms: _566  and  _567
REMARK  235  A    between atoms: _570  and  _572
REMARK  236  A    between atoms: _572  and  _573
REMARK  237  A    between atoms: _576  and  _578
REMARK  238  A    between atoms: _578  and  _579
REMARK  239  A    between atoms: _578  and  _581
REMARK  240  A    between atoms: _581  and  _582
REMARK                            x       y       z     vdW  Elec       q    Type
REMARK                         _______ _______ _______ _____ _____    ______ ____
ROOT
ATOM      1  O   HOH     1       4.501  25.107  30.123  0.00  0.00    +0.000 OA
ENDROOT
TORSDOF 0
REMARK  Name = ../refined-set-2016/2w8j/2w8j_pocket.pdb
REMARK  240 active torsions:
REMARK  status: ('A' for Active; 'I' for Inactive)
REMARK    1  A    between atoms: _1  and  _3
REMARK    2  A    between atoms: _3  and  _4
REMARK    3  A    between atoms: _3  and  _6
REMARK    4  A    between atoms: _6  and  _7
REMARK    5  A    between atoms: _10  and  _12
REMARK    6  A    between atoms: _12  and  _13
REMARK    7  A    between atoms: _12  and  _15
REMARK    8  A    between atoms: _15  and  _16
REMARK    9  A    between atoms: _21  and  _22
REMARK   10  A    between atoms: _24  and  _26
REMARK   11  A    between atoms: _26  and  _27
REMARK   12  A    between atoms: _26  and  _29
REMARK   13  A    between atoms: _29  and  _30
REMARK   14  A    between atoms: _35  and  _36
REMARK   15  A    between atoms: _38  and  _40
REMARK   16  A    between atoms: _40  and  _41
REMARK   17  A    between atoms: _40  and  _43
REMARK   18  A    between atoms: _43  and  _44
REMARK   19  A    between atoms: _46  and  _48
REMARK   20  A    between atoms: _48  and  _49
REMARK   21  A    between atoms: _48  and  _51
REMARK   22  A    between atoms: _51  and  _52
REMARK   23  A    between atoms: _55  and  _57
REMARK   24  A    between atoms: _57  and  _58
REMARK   25  A    between atoms: _60  and  _62
REMARK   26  A    between atoms: _62  and  _63
REMARK   27  A    between atoms: _62  and  _65
REMARK   28  A    between atoms: _65  and  _66
REMARK   29  A    between atoms: _71  and  _72
REMARK   30  A    between atoms: _74  and  _76
REMARK   31  A    between atoms: _76  and  _77
REMARK   32  A    between atoms: _76  and  _79
REMARK   33  A    between atoms: _79  and  _80
REMARK   34  A    between atoms: _80  and  _81
REMARK   35  A    between atoms: _83  and  _85
REMARK   36  A    between atoms: _85  and  _86
REMARK   37  A    between atoms: _89  and  _91
REMARK   38  A    between atoms: _91  and  _92
REMARK   39  A    between atoms: _91  and  _94
REMARK   40  A    between atoms: _94  and  _95
REMARK   41  A    between atoms: _100  and  _102
REMARK   42  A    between atoms: _102  and  _103
REMARK   43  A    between atoms: _102  and  _105
REMARK   44  A    between atoms: _105  and  _106
REMARK   45  A    between atoms: _109  and  _111
REMARK   46  A    between atoms: _111  and  _112
REMARK   47  A    between atoms: _111  and  _114
REMARK   48  A    between atoms: _114  and  _115
REMARK   49  A    between atoms: _117  and  _119
REMARK   50  A    between atoms: _119  and  _120
REMARK   51  A    between atoms: _119  and  _122
REMARK   52  A    between atoms: _122  and  _123
REMARK   53  A    between atoms: _128  and  _130
REMARK   54  A    between atoms: _130  and  _131
REMARK   55  A    between atoms: _134  and  _136
REMARK   56  A    between atoms: _136  and  _137
REMARK   57  A    between atoms: _136  and  _139
REMARK   58  A    between atoms: _139  and  _140
REMARK   59  A    between atoms: _142  and  _144
REMARK   60  A    between atoms: _144  and  _145
REMARK   61  A    between atoms: _144  and  _147
REMARK   62  A    between atoms: _147  and  _148
REMARK   63  A    between atoms: _151  and  _153
REMARK   64  A    between atoms: _153  and  _154
REMARK   65  A    between atoms: _153  and  _156
REMARK   66  A    between atoms: _156  and  _157
REMARK   67  A    between atoms: _160  and  _162
REMARK   68  A    between atoms: _162  and  _163
REMARK   69  A    between atoms: _162  and  _165
REMARK   70  A    between atoms: _165  and  _166
REMARK   71  A    between atoms: _166  and  _167
REMARK   72  A    between atoms: _170  and  _172
REMARK   73  A    between atoms: _172  and  _173
REMARK   74  A    between atoms: _175  and  _177
REMARK   75  A    between atoms: _177  and  _178
REMARK   76  A    between atoms: _177  and  _180
REMARK   77  A    between atoms: _183  and  _185
REMARK   78  A    between atoms: _185  and  _186
REMARK   79  A    between atoms: _185  and  _188
REMARK   80  A    between atoms: _188  and  _189
REMARK   81  A    between atoms: _194  and  _195
REMARK   82  A    between atoms: _197  and  _199
REMARK   83  A    between atoms: _199  and  _200
REMARK   84  A    between atoms: _199  and  _202
REMARK   85  A    between atoms: _202  and  _203
REMARK   86  A    between atoms: _205  and  _207
REMARK   87  A    between atoms: _207  and  _208
REMARK   88  A    between atoms: _207  and  _210
REMARK   89  A    between atoms: _210  and  _211
REMARK   90  A    between atoms: _211  and  _212
REMARK   91  A    between atoms: _214  and  _216
REMARK   92  A    between atoms: _216  and  _217
REMARK   93  A    between atoms: _216  and  _219
REMARK   94  A    between atoms: _219  and  _220
REMARK   95  A    between atoms: _223  and  _225
REMARK   96  A    between atoms: _225  and  _226
REMARK   97  A    between atoms: _225  and  _228
REMARK   98  A    between atoms: _228  and  _229
REMARK   99  A    between atoms: _229  and  _230
REMARK  100  A    between atoms: _233  and  _235
REMARK  101  A    between atoms: _235  and  _236
REMARK  102  A    between atoms: _239  and  _241
REMARK  103  A    between atoms: _241  and  _242
REMARK  104  A    between atoms: _241  and  _244
REMARK  105  A    between atoms: _244  and  _245
REMARK  106  A    between atoms: _250  and  _252
REMARK  107  A    between atoms: _252  and  _253
REMARK  108  A    between atoms: _252  and  _255
REMARK  109  A    between atoms: _255  and  _256
REMARK  110  A    between atoms: _258  and  _260
REMARK  111  A    between atoms: _260  and  _261
REMARK  112  A    between atoms: _260  and  _263
REMARK  113  A    between atoms: _266  and  _268
REMARK  114  A    between atoms: _268  and  _269
REMARK  115  A    between atoms: _271  and  _273
REMARK  116  A    between atoms: _273  and  _274
REMARK  117  A    between atoms: _273  and  _276
REMARK  118  A    between atoms: _276  and  _277
REMARK  119  A    between atoms: _280  and  _282
REMARK  120  A    between atoms: _282  and  _283
REMARK  121  A    between atoms: _282  and  _285
REMARK  122  A    between atoms: _285  and  _286
REMARK  123  A    between atoms: _292  and  _294
REMARK  124  A    between atoms: _294  and  _295
REMARK  125  A    between atoms: _294  and  _297
REMARK  126  A    between atoms: _297  and  _298
REMARK  127  A    between atoms: _300  and  _302
REMARK  128  A    between atoms: _302  and  _303
REMARK  129  A    between atoms: _302  and  _305
REMARK  130  A    between atoms: _305  and  _306
REMARK  131  A    between atoms: _306  and  _307
REMARK  132  A    between atoms: _307  and  _308
REMARK  133  A    between atoms: _308  and  _309
REMARK  134  A    between atoms: _313  and  _315
REMARK  135  A    between atoms: _315  and  _316
REMARK  136  A    between atoms: _315  and  _318
REMARK  137  A    between atoms: _318  and  _319
REMARK  138  A    between atoms: _322  and  _324
REMARK  139  A    between atoms: _324  and  _325
REMARK  140  A    between atoms: _324  and  _327
REMARK  141  A    between atoms: _330  and  _332
REMARK  142  A    between atoms: _332  and  _333
REMARK  143  A    between atoms: _335  and  _337
REMARK  144  A    between atoms: _337  and  _338
REMARK  145  A    between atoms: _340  and  _342
REMARK  146  A    between atoms: _342  and  _343
REMARK  147  A    between atoms: _342  and  _345
REMARK  148  A    between atoms: _345  and  _346
REMARK  149  A    between atoms: _352  and  _354
REMARK  150  A    between atoms: _354  and  _355
REMARK  151  A    between atoms: _354  and  _357
REMARK  152  A    between atoms: _357  and  _358
REMARK  153  A    between atoms: _361  and  _363
REMARK  154  A    between atoms: _363  and  _364
REMARK  155  A    between atoms: _363  and  _366
REMARK  156  A    between atoms: _366  and  _367
REMARK  157  A    between atoms: _367  and  _368
REMARK  158  A    between atoms: _368  and  _369
REMARK  159  A    between atoms: _378  and  _380
REMARK  160  A    between atoms: _380  and  _381
REMARK  161  A    between atoms: _384  and  _386
REMARK  162  A    between atoms: _386  and  _387
REMARK  163  A    between atoms: _386  and  _389
REMARK  164  A    between atoms: _389  and  _390
REMARK  165  A    between atoms: _390  and  _391
REMARK  166  A    between atoms: _391  and  _392
REMARK  167  A    between atoms: _401  and  _403
REMARK  168  A    between atoms: _403  and  _404
REMARK  169  A    between atoms: _403  and  _406
REMARK  170  A    between atoms: _406  and  _407
REMARK  171  A    between atoms: _410  and  _412
REMARK  172  A    between atoms: _412  and  _413
REMARK  173  A    between atoms: _412  and  _415
REMARK  174  A    between atoms: _415  and  _416
REMARK  175  A    between atoms: _421  and  _423
REMARK  176  A    between atoms: _423  and  _424
REMARK  177  A    between atoms: _426  and  _428
REMARK  178  A    between atoms: _428  and  _429
REMARK  179  A    between atoms: _428  and  _431
REMARK  180  A    between atoms: _431  and  _432
REMARK  181  A    between atoms: _434  and  _436
REMARK  182  A    between atoms: _436  and  _437
REMARK  183  A    between atoms: _436  and  _439
REMARK  184  A    between atoms: _439  and  _440
REMARK  185  A    between atoms: _440  and  _441
REMARK  186  A    between atoms: _441  and  _442
REMARK  187  A    between atoms: _451  and  _453
REMARK  188  A    between atoms: _453  and  _454
REMARK  189  A    between atoms: _453  and  _456
REMARK  190  A    between atoms: _456  and  _457
REMARK  191  A    between atoms: _457  and  _458
REMARK  192  A    between atoms: _460  and  _462
REMARK  193  A    between atoms: _462  and  _463
REMARK  194  A    between atoms: _462  and  _465
REMARK  195  A    between atoms: _465  and  _466
REMARK  196  A    between atoms: _469  and  _471
REMARK  197  A    between atoms: _471  and  _472
REMARK  198  A    between atoms: _471  and  _474
REMARK  199  A    between atoms: _474  and  _475
REMARK  200  A    between atoms: _480  and  _482
REMARK  201  A    between atoms: _482  and  _483
REMARK  202  A    between atoms: _485  and  _487
REMARK  203  A    between atoms: _487  and  _488
REMARK  204  A    between atoms: _487  and  _490
REMARK  205  A    between atoms: _490  and  _491
REMARK  206  A    between atoms: _493  and  _495
REMARK  207  A    between atoms: _495  and  _496
REMARK  208  A    between atoms: _495  and  _498
REMARK  209  A    between atoms: _498  and  _499
REMARK  210  A    between atoms: _499  and  _500
REMARK  211  A    between atoms: _502  and  _504
REMARK  212  A    between atoms: _504  and  _505
REMARK  213  A    between atoms: _504  and  _507
REMARK  214  A    between atoms: _507  and  _508
REMARK  215  A    between atoms: _508  and  _509
REMARK  216  A    between atoms: _509  and  _510
REMARK  217  A    between atoms: _520  and  _521
REMARK  218  A    between atoms: _526  and  _528
REMARK  219  A    between atoms: _528  and  _529
REMARK  220  A    between atoms: _528  and  _531
REMARK  221  A    between atoms: _531  and  _532
REMARK  222  A    between atoms: _537  and  _538
REMARK  223  A    between atoms: _540  and  _542
REMARK  224  A    between atoms: _542  and  _543
REMARK  225  A    between atoms: _542  and  _545
REMARK  226  A    between atoms: _545  and  _546
REMARK  227  A    between atoms: _549  and  _551
REMARK  228  A    between atoms: _551  and  _552
REMARK  229  A    between atoms: _551  and  _554
REMARK  230  A    between atoms: _554  and  _555
REMARK  231  A    between atoms: _561  and  _563
REMARK  232  A    between atoms: _563  and  _564
REMARK  233  A    between atoms: _563  and  _566
REMARK  234  A    between atoms: _566  and  _567
REMARK  235  A    between atoms: _570  and  _572
REMARK  236  A    between atoms: _572  and  _573
REMARK  237  A    between atoms: _576  and  _578
REMARK  238  A    between atoms: _578  and  _579
REMARK  239  A    between atoms: _578  and  _581
REMARK  240  A    between atoms: _581  and  _582
REMARK                            x       y       z     vdW  Elec       q    Type
REMARK                         _______ _______ _______ _____ _____    ______ ____
ROOT
ATOM      1  O   HOH     1       3.333  18.801  36.917  0.00  0.00    +0.000 OA
ENDROOT
TORSDOF 0
REMARK  Name = ../refined-set-2016/2w8j/2w8j_pocket.pdb
REMARK  240 active torsions:
REMARK  status: ('A' for Active; 'I' for Inactive)
REMARK    1  A    between atoms: _1  and  _3
REMARK    2  A    between atoms: _3  and  _4
REMARK    3  A    between atoms: _3  and  _6
REMARK    4  A    between atoms: _6  and  _7
REMARK    5  A    between atoms: _10  and  _12
REMARK    6  A    between atoms: _12  and  _13
REMARK    7  A    between atoms: _12  and  _15
REMARK    8  A    between atoms: _15  and  _16
REMARK    9  A    between atoms: _21  and  _22
REMARK   10  A    between atoms: _24  and  _26
REMARK   11  A    between atoms: _26  and  _27
REMARK   12  A    between atoms: _26  and  _29
REMARK   13  A    between atoms: _29  and  _30
REMARK   14  A    between atoms: _35  and  _36
REMARK   15  A    between atoms: _38  and  _40
REMARK   16  A    between atoms: _40  and  _41
REMARK   17  A    between atoms: _40  and  _43
REMARK   18  A    between atoms: _43  and  _44
REMARK   19  A    between atoms: _46  and  _48
REMARK   20  A    between atoms: _48  and  _49
REMARK   21  A    between atoms: _48  and  _51
REMARK   22  A    between atoms: _51  and  _52
REMARK   23  A    between atoms: _55  and  _57
REMARK   24  A    between atoms: _57  and  _58
REMARK   25  A    between atoms: _60  and  _62
REMARK   26  A    between atoms: _62  and  _63
REMARK   27  A    between atoms: _62  and  _65
REMARK   28  A    between atoms: _65  and  _66
REMARK   29  A    between atoms: _71  and  _72
REMARK   30  A    between atoms: _74  and  _76
REMARK   31  A    between atoms: _76  and  _77
REMARK   32  A    between atoms: _76  and  _79
REMARK   33  A    between atoms: _79  and  _80
REMARK   34  A    between atoms: _80  and  _81
REMARK   35  A    between atoms: _83  and  _85
REMARK   36  A    between atoms: _85  and  _86
REMARK   37  A    between atoms: _89  and  _91
REMARK   38  A    between atoms: _91  and  _92
REMARK   39  A    between atoms: _91  and  _94
REMARK   40  A    between atoms: _94  and  _95
REMARK   41  A    between atoms: _100  and  _102
REMARK   42  A    between atoms: _102  and  _103
REMARK   43  A    between atoms: _102  and  _105
REMARK   44  A    between atoms: _105  and  _106
REMARK   45  A    between atoms: _109  and  _111
REMARK   46  A    between atoms: _111  and  _112
REMARK   47  A    between atoms: _111  and  _114
REMARK   48  A    between atoms: _114  and  _115
REMARK   49  A    between atoms: _117  and  _119
REMARK   50  A    between atoms: _119  and  _120
REMARK   51  A    between atoms: _119  and  _122
REMARK   52  A    between atoms: _122  and  _123
REMARK   53  A    between atoms: _128  and  _130
REMARK   54  A    between atoms: _130  and  _131
REMARK   55  A    between atoms: _134  and  _136
REMARK   56  A    between atoms: _136  and  _137
REMARK   57  A    between atoms: _136  and  _139
REMARK   58  A    between atoms: _139  and  _140
REMARK   59  A    between atoms: _142  and  _144
REMARK   60  A    between atoms: _144  and  _145
REMARK   61  A    between atoms: _144  and  _147
REMARK   62  A    between atoms: _147  and  _148
REMARK   63  A    between atoms: _151  and  _153
REMARK   64  A    between atoms: _153  and  _154
REMARK   65  A    between atoms: _153  and  _156
REMARK   66  A    between atoms: _156  and  _157
REMARK   67  A    between atoms: _160  and  _162
REMARK   68  A    between atoms: _162  and  _163
REMARK   69  A    between atoms: _162  and  _165
REMARK   70  A    between atoms: _165  and  _166
REMARK   71  A    between atoms: _166  and  _167
REMARK   72  A    between atoms: _170  and  _172
REMARK   73  A    between atoms: _172  and  _173
REMARK   74  A    between atoms: _175  and  _177
REMARK   75  A    between atoms: _177  and  _178
REMARK   76  A    between atoms: _177  and  _180
REMARK   77  A    between atoms: _183  and  _185
REMARK   78  A    between atoms: _185  and  _186
REMARK   79  A    between atoms: _185  and  _188
REMARK   80  A    between atoms: _188  and  _189
REMARK   81  A    between atoms: _194  and  _195
REMARK   82  A    between atoms: _197  and  _199
REMARK   83  A    between atoms: _199  and  _200
REMARK   84  A    between atoms: _199  and  _202
REMARK   85  A    between atoms: _202  and  _203
REMARK   86  A    between atoms: _205  and  _207
REMARK   87  A    between atoms: _207  and  _208
REMARK   88  A    between atoms: _207  and  _210
REMARK   89  A    between atoms: _210  and  _211
REMARK   90  A    between atoms: _211  and  _212
REMARK   91  A    between atoms: _214  and  _216
REMARK   92  A    between atoms: _216  and  _217
REMARK   93  A    between atoms: _216  and  _219
REMARK   94  A    between atoms: _219  and  _220
REMARK   95  A    between atoms: _223  and  _225
REMARK   96  A    between atoms: _225  and  _226
REMARK   97  A    between atoms: _225  and  _228
REMARK   98  A    between atoms: _228  and  _229
REMARK   99  A    between atoms: _229  and  _230
REMARK  100  A    between atoms: _233  and  _235
REMARK  101  A    between atoms: _235  and  _236
REMARK  102  A    between atoms: _239  and  _241
REMARK  103  A    between atoms: _241  and  _242
REMARK  104  A    between atoms: _241  and  _244
REMARK  105  A    between atoms: _244  and  _245
REMARK  106  A    between atoms: _250  and  _252
REMARK  107  A    between atoms: _252  and  _253
REMARK  108  A    between atoms: _252  and  _255
REMARK  109  A    between atoms: _255  and  _256
REMARK  110  A    between atoms: _258  and  _260
REMARK  111  A    between atoms: _260  and  _261
REMARK  112  A    between atoms: _260  and  _263
REMARK  113  A    between atoms: _266  and  _268
REMARK  114  A    between atoms: _268  and  _269
REMARK  115  A    between atoms: _271  and  _273
REMARK  116  A    between atoms: _273  and  _274
REMARK  117  A    between atoms: _273  and  _276
REMARK  118  A    between atoms: _276  and  _277
REMARK  119  A    between atoms: _280  and  _282
REMARK  120  A    between atoms: _282  and  _283
REMARK  121  A    between atoms: _282  and  _285
REMARK  122  A    between atoms: _285  and  _286
REMARK  123  A    between atoms: _292  and  _294
REMARK  124  A    between atoms: _294  and  _295
REMARK  125  A    between atoms: _294  and  _297
REMARK  126  A    between atoms: _297  and  _298
REMARK  127  A    between atoms: _300  and  _302
REMARK  128  A    between atoms: _302  and  _303
REMARK  129  A    between atoms: _302  and  _305
REMARK  130  A    between atoms: _305  and  _306
REMARK  131  A    between atoms: _306  and  _307
REMARK  132  A    between atoms: _307  and  _308
REMARK  133  A    between atoms: _308  and  _309
REMARK  134  A    between atoms: _313  and  _315
REMARK  135  A    between atoms: _315  and  _316
REMARK  136  A    between atoms: _315  and  _318
REMARK  137  A    between atoms: _318  and  _319
REMARK  138  A    between atoms: _322  and  _324
REMARK  139  A    between atoms: _324  and  _325
REMARK  140  A    between atoms: _324  and  _327
REMARK  141  A    between atoms: _330  and  _332
REMARK  142  A    between atoms: _332  and  _333
REMARK  143  A    between atoms: _335  and  _337
REMARK  144  A    between atoms: _337  and  _338
REMARK  145  A    between atoms: _340  and  _342
REMARK  146  A    between atoms: _342  and  _343
REMARK  147  A    between atoms: _342  and  _345
REMARK  148  A    between atoms: _345  and  _346
REMARK  149  A    between atoms: _352  and  _354
REMARK  150  A    between atoms: _354  and  _355
REMARK  151  A    between atoms: _354  and  _357
REMARK  152  A    between atoms: _357  and  _358
REMARK  153  A    between atoms: _361  and  _363
REMARK  154  A    between atoms: _363  and  _364
REMARK  155  A    between atoms: _363  and  _366
REMARK  156  A    between atoms: _366  and  _367
REMARK  157  A    between atoms: _367  and  _368
REMARK  158  A    between atoms: _368  and  _369
REMARK  159  A    between atoms: _378  and  _380
REMARK  160  A    between atoms: _380  and  _381
REMARK  161  A    between atoms: _384  and  _386
REMARK  162  A    between atoms: _386  and  _387
REMARK  163  A    between atoms: _386  and  _389
REMARK  164  A    between atoms: _389  and  _390
REMARK  165  A    between atoms: _390  and  _391
REMARK  166  A    between atoms: _391  and  _392
REMARK  167  A    between atoms: _401  and  _403
REMARK  168  A    between atoms: _403  and  _404
REMARK  169  A    between atoms: _403  and  _406
REMARK  170  A    between atoms: _406  and  _407
REMARK  171  A    between atoms: _410  and  _412
REMARK  172  A    between atoms: _412  and  _413
REMARK  173  A    between atoms: _412  and  _415
REMARK  174  A    between atoms: _415  and  _416
REMARK  175  A    between atoms: _421  and  _423
REMARK  176  A    between atoms: _423  and  _424
REMARK  177  A    between atoms: _426  and  _428
REMARK  178  A    between atoms: _428  and  _429
REMARK  179  A    between atoms: _428  and  _431
REMARK  180  A    between atoms: _431  and  _432
REMARK  181  A    between atoms: _434  and  _436
REMARK  182  A    between atoms: _436  and  _437
REMARK  183  A    between atoms: _436  and  _439
REMARK  184  A    between atoms: _439  and  _440
REMARK  185  A    between atoms: _440  and  _441
REMARK  186  A    between atoms: _441  and  _442
REMARK  187  A    between atoms: _451  and  _453
REMARK  188  A    between atoms: _453  and  _454
REMARK  189  A    between atoms: _453  and  _456
REMARK  190  A    between atoms: _456  and  _457
REMARK  191  A    between atoms: _457  and  _458
REMARK  192  A    between atoms: _460  and  _462
REMARK  193  A    between atoms: _462  and  _463
REMARK  194  A    between atoms: _462  and  _465
REMARK  195  A    between atoms: _465  and  _466
REMARK  196  A    between atoms: _469  and  _471
REMARK  197  A    between atoms: _471  and  _472
REMARK  198  A    between atoms: _471  and  _474
REMARK  199  A    between atoms: _474  and  _475
REMARK  200  A    between atoms: _480  and  _482
REMARK  201  A    between atoms: _482  and  _483
REMARK  202  A    between atoms: _485  and  _487
REMARK  203  A    between atoms: _487  and  _488
REMARK  204  A    between atoms: _487  and  _490
REMARK  205  A    between atoms: _490  and  _491
REMARK  206  A    between atoms: _493  and  _495
REMARK  207  A    between atoms: _495  and  _496
REMARK  208  A    between atoms: _495  and  _498
REMARK  209  A    between atoms: _498  and  _499
REMARK  210  A    between atoms: _499  and  _500
REMARK  211  A    between atoms: _502  and  _504
REMARK  212  A    between atoms: _504  and  _505
REMARK  213  A    between atoms: _504  and  _507
REMARK  214  A    between atoms: _507  and  _508
REMARK  215  A    between atoms: _508  and  _509
REMARK  216  A    between atoms: _509  and  _510
REMARK  217  A    between atoms: _520  and  _521
REMARK  218  A    between atoms: _526  and  _528
REMARK  219  A    between atoms: _528  and  _529
REMARK  220  A    between atoms: _528  and  _531
REMARK  221  A    between atoms: _531  and  _532
REMARK  222  A    between atoms: _537  and  _538
REMARK  223  A    between atoms: _540  and  _542
REMARK  224  A    between atoms: _542  and  _543
REMARK  225  A    between atoms: _542  and  _545
REMARK  226  A    between atoms: _545  and  _546
REMARK  227  A    between atoms: _549  and  _551
REMARK  228  A    between atoms: _551  and  _552
REMARK  229  A    between atoms: _551  and  _554
REMARK  230  A    between atoms: _554  and  _555
REMARK  231  A    between atoms: _561  and  _563
REMARK  232  A    between atoms: _563  and  _564
REMARK  233  A    between atoms: _563  and  _566
REMARK  234  A    between atoms: _566  and  _567
REMARK  235  A    between atoms: _570  and  _572
REMARK  236  A    between atoms: _572  and  _573
REMARK  237  A    between atoms: _576  and  _578
REMARK  238  A    between atoms: _578  and  _579
REMARK  239  A    between atoms: _578  and  _581
REMARK  240  A    between atoms: _581  and  _582
REMARK                            x       y       z     vdW  Elec       q    Type
REMARK                         _______ _______ _______ _____ _____    ______ ____
ROOT
ATOM      1  O   HOH     1      -2.249  17.932  32.285  0.00  0.00    +0.000 OA
ENDROOT
TORSDOF 0
REMARK  Name = ../refined-set-2016/2w8j/2w8j_pocket.pdb
REMARK  240 active torsions:
REMARK  status: ('A' for Active; 'I' for Inactive)
REMARK    1  A    between atoms: _1  and  _3
REMARK    2  A    between atoms: _3  and  _4
REMARK    3  A    between atoms: _3  and  _6
REMARK    4  A    between atoms: _6  and  _7
REMARK    5  A    between atoms: _10  and  _12
REMARK    6  A    between atoms: _12  and  _13
REMARK    7  A    between atoms: _12  and  _15
REMARK    8  A    between atoms: _15  and  _16
REMARK    9  A    between atoms: _21  and  _22
REMARK   10  A    between atoms: _24  and  _26
REMARK   11  A    between atoms: _26  and  _27
REMARK   12  A    between atoms: _26  and  _29
REMARK   13  A    between atoms: _29  and  _30
REMARK   14  A    between atoms: _35  and  _36
REMARK   15  A    between atoms: _38  and  _40
REMARK   16  A    between atoms: _40  and  _41
REMARK   17  A    between atoms: _40  and  _43
REMARK   18  A    between atoms: _43  and  _44
REMARK   19  A    between atoms: _46  and  _48
REMARK   20  A    between atoms: _48  and  _49
REMARK   21  A    between atoms: _48  and  _51
REMARK   22  A    between atoms: _51  and  _52
REMARK   23  A    between atoms: _55  and  _57
REMARK   24  A    between atoms: _57  and  _58
REMARK   25  A    between atoms: _60  and  _62
REMARK   26  A    between atoms: _62  and  _63
REMARK   27  A    between atoms: _62  and  _65
REMARK   28  A    between atoms: _65  and  _66
REMARK   29  A    between atoms: _71  and  _72
REMARK   30  A    between atoms: _74  and  _76
REMARK   31  A    between atoms: _76  and  _77
REMARK   32  A    between atoms: _76  and  _79
REMARK   33  A    between atoms: _79  and  _80
REMARK   34  A    between atoms: _80  and  _81
REMARK   35  A    between atoms: _83  and  _85
REMARK   36  A    between atoms: _85  and  _86
REMARK   37  A    between atoms: _89  and  _91
REMARK   38  A    between atoms: _91  and  _92
REMARK   39  A    between atoms: _91  and  _94
REMARK   40  A    between atoms: _94  and  _95
REMARK   41  A    between atoms: _100  and  _102
REMARK   42  A    between atoms: _102  and  _103
REMARK   43  A    between atoms: _102  and  _105
REMARK   44  A    between atoms: _105  and  _106
REMARK   45  A    between atoms: _109  and  _111
REMARK   46  A    between atoms: _111  and  _112
REMARK   47  A    between atoms: _111  and  _114
REMARK   48  A    between atoms: _114  and  _115
REMARK   49  A    between atoms: _117  and  _119
REMARK   50  A    between atoms: _119  and  _120
REMARK   51  A    between atoms: _119  and  _122
REMARK   52  A    between atoms: _122  and  _123
REMARK   53  A    between atoms: _128  and  _130
REMARK   54  A    between atoms: _130  and  _131
REMARK   55  A    between atoms: _134  and  _136
REMARK   56  A    between atoms: _136  and  _137
REMARK   57  A    between atoms: _136  and  _139
REMARK   58  A    between atoms: _139  and  _140
REMARK   59  A    between atoms: _142  and  _144
REMARK   60  A    between atoms: _144  and  _145
REMARK   61  A    between atoms: _144  and  _147
REMARK   62  A    between atoms: _147  and  _148
REMARK   63  A    between atoms: _151  and  _153
REMARK   64  A    between atoms: _153  and  _154
REMARK   65  A    between atoms: _153  and  _156
REMARK   66  A    between atoms: _156  and  _157
REMARK   67  A    between atoms: _160  and  _162
REMARK   68  A    between atoms: _162  and  _163
REMARK   69  A    between atoms: _162  and  _165
REMARK   70  A    between atoms: _165  and  _166
REMARK   71  A    between atoms: _166  and  _167
REMARK   72  A    between atoms: _170  and  _172
REMARK   73  A    between atoms: _172  and  _173
REMARK   74  A    between atoms: _175  and  _177
REMARK   75  A    between atoms: _177  and  _178
REMARK   76  A    between atoms: _177  and  _180
REMARK   77  A    between atoms: _183  and  _185
REMARK   78  A    between atoms: _185  and  _186
REMARK   79  A    between atoms: _185  and  _188
REMARK   80  A    between atoms: _188  and  _189
REMARK   81  A    between atoms: _194  and  _195
REMARK   82  A    between atoms: _197  and  _199
REMARK   83  A    between atoms: _199  and  _200
REMARK   84  A    between atoms: _199  and  _202
REMARK   85  A    between atoms: _202  and  _203
REMARK   86  A    between atoms: _205  and  _207
REMARK   87  A    between atoms: _207  and  _208
REMARK   88  A    between atoms: _207  and  _210
REMARK   89  A    between atoms: _210  and  _211
REMARK   90  A    between atoms: _211  and  _212
REMARK   91  A    between atoms: _214  and  _216
REMARK   92  A    between atoms: _216  and  _217
REMARK   93  A    between atoms: _216  and  _219
REMARK   94  A    between atoms: _219  and  _220
REMARK   95  A    between atoms: _223  and  _225
REMARK   96  A    between atoms: _225  and  _226
REMARK   97  A    between atoms: _225  and  _228
REMARK   98  A    between atoms: _228  and  _229
REMARK   99  A    between atoms: _229  and  _230
REMARK  100  A    between atoms: _233  and  _235
REMARK  101  A    between atoms: _235  and  _236
REMARK  102  A    between atoms: _239  and  _241
REMARK  103  A    between atoms: _241  and  _242
REMARK  104  A    between atoms: _241  and  _244
REMARK  105  A    between atoms: _244  and  _245
REMARK  106  A    between atoms: _250  and  _252
REMARK  107  A    between atoms: _252  and  _253
REMARK  108  A    between atoms: _252  and  _255
REMARK  109  A    between atoms: _255  and  _256
REMARK  110  A    between atoms: _258  and  _260
REMARK  111  A    between atoms: _260  and  _261
REMARK  112  A    between atoms: _260  and  _263
REMARK  113  A    between atoms: _266  and  _268
REMARK  114  A    between atoms: _268  and  _269
REMARK  115  A    between atoms: _271  and  _273
REMARK  116  A    between atoms: _273  and  _274
REMARK  117  A    between atoms: _273  and  _276
REMARK  118  A    between atoms: _276  and  _277
REMARK  119  A    between atoms: _280  and  _282
REMARK  120  A    between atoms: _282  and  _283
REMARK  121  A    between atoms: _282  and  _285
REMARK  122  A    between atoms: _285  and  _286
REMARK  123  A    between atoms: _292  and  _294
REMARK  124  A    between atoms: _294  and  _295
REMARK  125  A    between atoms: _294  and  _297
REMARK  126  A    between atoms: _297  and  _298
REMARK  127  A    between atoms: _300  and  _302
REMARK  128  A    between atoms: _302  and  _303
REMARK  129  A    between atoms: _302  and  _305
REMARK  130  A    between atoms: _305  and  _306
REMARK  131  A    between atoms: _306  and  _307
REMARK  132  A    between atoms: _307  and  _308
REMARK  133  A    between atoms: _308  and  _309
REMARK  134  A    between atoms: _313  and  _315
REMARK  135  A    between atoms: _315  and  _316
REMARK  136  A    between atoms: _315  and  _318
REMARK  137  A    between atoms: _318  and  _319
REMARK  138  A    between atoms: _322  and  _324
REMARK  139  A    between atoms: _324  and  _325
REMARK  140  A    between atoms: _324  and  _327
REMARK  141  A    between atoms: _330  and  _332
REMARK  142  A    between atoms: _332  and  _333
REMARK  143  A    between atoms: _335  and  _337
REMARK  144  A    between atoms: _337  and  _338
REMARK  145  A    between atoms: _340  and  _342
REMARK  146  A    between atoms: _342  and  _343
REMARK  147  A    between atoms: _342  and  _345
REMARK  148  A    between atoms: _345  and  _346
REMARK  149  A    between atoms: _352  and  _354
REMARK  150  A    between atoms: _354  and  _355
REMARK  151  A    between atoms: _354  and  _357
REMARK  152  A    between atoms: _357  and  _358
REMARK  153  A    between atoms: _361  and  _363
REMARK  154  A    between atoms: _363  and  _364
REMARK  155  A    between atoms: _363  and  _366
REMARK  156  A    between atoms: _366  and  _367
REMARK  157  A    between atoms: _367  and  _368
REMARK  158  A    between atoms: _368  and  _369
REMARK  159  A    between atoms: _378  and  _380
REMARK  160  A    between atoms: _380  and  _381
REMARK  161  A    between atoms: _384  and  _386
REMARK  162  A    between atoms: _386  and  _387
REMARK  163  A    between atoms: _386  and  _389
REMARK  164  A    between atoms: _389  and  _390
REMARK  165  A    between atoms: _390  and  _391
REMARK  166  A    between atoms: _391  and  _392
REMARK  167  A    between atoms: _401  and  _403
REMARK  168  A    between atoms: _403  and  _404
REMARK  169  A    between atoms: _403  and  _406
REMARK  170  A    between atoms: _406  and  _407
REMARK  171  A    between atoms: _410  and  _412
REMARK  172  A    between atoms: _412  and  _413
REMARK  173  A    between atoms: _412  and  _415
REMARK  174  A    between atoms: _415  and  _416
REMARK  175  A    between atoms: _421  and  _423
REMARK  176  A    between atoms: _423  and  _424
REMARK  177  A    between atoms: _426  and  _428
REMARK  178  A    between atoms: _428  and  _429
REMARK  179  A    between atoms: _428  and  _431
REMARK  180  A    between atoms: _431  and  _432
REMARK  181  A    between atoms: _434  and  _436
REMARK  182  A    between atoms: _436  and  _437
REMARK  183  A    between atoms: _436  and  _439
REMARK  184  A    between atoms: _439  and  _440
REMARK  185  A    between atoms: _440  and  _441
REMARK  186  A    between atoms: _441  and  _442
REMARK  187  A    between atoms: _451  and  _453
REMARK  188  A    between atoms: _453  and  _454
REMARK  189  A    between atoms: _453  and  _456
REMARK  190  A    between atoms: _456  and  _457
REMARK  191  A    between atoms: _457  and  _458
REMARK  192  A    between atoms: _460  and  _462
REMARK  193  A    between atoms: _462  and  _463
REMARK  194  A    between atoms: _462  and  _465
REMARK  195  A    between atoms: _465  and  _466
REMARK  196  A    between atoms: _469  and  _471
REMARK  197  A    between atoms: _471  and  _472
REMARK  198  A    between atoms: _471  and  _474
REMARK  199  A    between atoms: _474  and  _475
REMARK  200  A    between atoms: _480  and  _482
REMARK  201  A    between atoms: _482  and  _483
REMARK  202  A    between atoms: _485  and  _487
REMARK  203  A    between atoms: _487  and  _488
REMARK  204  A    between atoms: _487  and  _490
REMARK  205  A    between atoms: _490  and  _491
REMARK  206  A    between atoms: _493  and  _495
REMARK  207  A    between atoms: _495  and  _496
REMARK  208  A    between atoms: _495  and  _498
REMARK  209  A    between atoms: _498  and  _499
REMARK  210  A    between atoms: _499  and  _500
REMARK  211  A    between atoms: _502  and  _504
REMARK  212  A    between atoms: _504  and  _505
REMARK  213  A    between atoms: _504  and  _507
REMARK  214  A    between atoms: _507  and  _508
REMARK  215  A    between atoms: _508  and  _509
REMARK  216  A    between atoms: _509  and  _510
REMARK  217  A    between atoms: _520  and  _521
REMARK  218  A    between atoms: _526  and  _528
REMARK  219  A    between atoms: _528  and  _529
REMARK  220  A    between atoms: _528  and  _531
REMARK  221  A    between atoms: _531  and  _532
REMARK  222  A    between atoms: _537  and  _538
REMARK  223  A    between atoms: _540  and  _542
REMARK  224  A    between atoms: _542  and  _543
REMARK  225  A    between atoms: _542  and  _545
REMARK  226  A    between atoms: _545  and  _546
REMARK  227  A    between atoms: _549  and  _551
REMARK  228  A    between atoms: _551  and  _552
REMARK  229  A    between atoms: _551  and  _554
REMARK  230  A    between atoms: _554  and  _555
REMARK  231  A    between atoms: _561  and  _563
REMARK  232  A    between atoms: _563  and  _564
REMARK  233  A    between atoms: _563  and  _566
REMARK  234  A    between atoms: _566  and  _567
REMARK  235  A    between atoms: _570  and  _572
REMARK  236  A    between atoms: _572  and  _573
REMARK  237  A    between atoms: _576  and  _578
REMARK  238  A    between atoms: _578  and  _579
REMARK  239  A    between atoms: _578  and  _581
REMARK  240  A    between atoms: _581  and  _582
REMARK                            x       y       z     vdW  Elec       q    Type
REMARK                         _______ _______ _______ _____ _____    ______ ____
ROOT
ATOM      1  O   HOH     1       1.760  19.277  27.133  0.00  0.00    +0.000 OA
ENDROOT
TORSDOF 0
