REMARK  Name = ../refined-set-2016/1b6h/1b6h_pocket.pdb
REMARK  256 active torsions:
REMARK  status: ('A' for Active; 'I' for Inactive)
REMARK    1  A    between atoms: _1  and  _3
REMARK    2  A    between atoms: _3  and  _4
REMARK    3  A    between atoms: _3  and  _6
REMARK    4  A    between atoms: _6  and  _7
REMARK    5  A    between atoms: _12  and  _14
REMARK    6  A    between atoms: _14  and  _15
REMARK    7  A    between atoms: _17  and  _19
REMARK    8  A    between atoms: _19  and  _20
REMARK    9  A    between atoms: _19  and  _22
REMARK   10  A    between atoms: _22  and  _23
REMARK   11  A    between atoms: _23  and  _24
REMARK   12  A    between atoms: _29  and  _31
REMARK   13  A    between atoms: _31  and  _32
REMARK   14  A    between atoms: _31  and  _34
REMARK   15  A    between atoms: _34  and  _35
REMARK   16  A    between atoms: _38  and  _40
REMARK   17  A    between atoms: _40  and  _41
REMARK   18  A    between atoms: _40  and  _43
REMARK   19  A    between atoms: _43  and  _44
REMARK   20  A    between atoms: _44  and  _45
REMARK   21  A    between atoms: _48  and  _50
REMARK   22  A    between atoms: _50  and  _51
REMARK   23  A    between atoms: _53  and  _55
REMARK   24  A    between atoms: _55  and  _56
REMARK   25  A    between atoms: _55  and  _58
REMARK   26  A    between atoms: _62  and  _63
REMARK   27  A    between atoms: _68  and  _70
REMARK   28  A    between atoms: _70  and  _71
REMARK   29  A    between atoms: _70  and  _73
REMARK   30  A    between atoms: _73  and  _74
REMARK   31  A    between atoms: _74  and  _75
REMARK   32  A    between atoms: _78  and  _80
REMARK   33  A    between atoms: _80  and  _81
REMARK   34  A    between atoms: _80  and  _83
REMARK   35  A    between atoms: _83  and  _84
REMARK   36  A    between atoms: _86  and  _88
REMARK   37  A    between atoms: _88  and  _89
REMARK   38  A    between atoms: _88  and  _91
REMARK   39  A    between atoms: _91  and  _92
REMARK   40  A    between atoms: _97  and  _99
REMARK   41  A    between atoms: _99  and  _100
REMARK   42  A    between atoms: _99  and  _102
REMARK   43  A    between atoms: _102  and  _103
REMARK   44  A    between atoms: _103  and  _104
REMARK   45  A    between atoms: _104  and  _105
REMARK   46  A    between atoms: _115  and  _116
REMARK   47  A    between atoms: _121  and  _123
REMARK   48  A    between atoms: _123  and  _124
REMARK   49  A    between atoms: _123  and  _126
REMARK   50  A    between atoms: _126  and  _127
REMARK   51  A    between atoms: _132  and  _133
REMARK   52  A    between atoms: _135  and  _137
REMARK   53  A    between atoms: _137  and  _138
REMARK   54  A    between atoms: _137  and  _140
REMARK   55  A    between atoms: _140  and  _141
REMARK   56  A    between atoms: _146  and  _147
REMARK   57  A    between atoms: _149  and  _151
REMARK   58  A    between atoms: _151  and  _152
REMARK   59  A    between atoms: _151  and  _154
REMARK   60  A    between atoms: _157  and  _159
REMARK   61  A    between atoms: _159  and  _160
REMARK   62  A    between atoms: _159  and  _162
REMARK   63  A    between atoms: _162  and  _163
REMARK   64  A    between atoms: _169  and  _170
REMARK   65  A    between atoms: _175  and  _177
REMARK   66  A    between atoms: _177  and  _178
REMARK   67  A    between atoms: _177  and  _180
REMARK   68  A    between atoms: _180  and  _181
REMARK   69  A    between atoms: _183  and  _185
REMARK   70  A    between atoms: _185  and  _186
REMARK   71  A    between atoms: _185  and  _188
REMARK   72  A    between atoms: _188  and  _189
REMARK   73  A    between atoms: _189  and  _190
REMARK   74  A    between atoms: _193  and  _195
REMARK   75  A    between atoms: _195  and  _196
REMARK   76  A    between atoms: _195  and  _198
REMARK   77  A    between atoms: _198  and  _199
REMARK   78  A    between atoms: _204  and  _205
REMARK   79  A    between atoms: _207  and  _209
REMARK   80  A    between atoms: _209  and  _210
REMARK   81  A    between atoms: _209  and  _212
REMARK   82  A    between atoms: _212  and  _213
REMARK   83  A    between atoms: _218  and  _220
REMARK   84  A    between atoms: _220  and  _221
REMARK   85  A    between atoms: _220  and  _223
REMARK   86  A    between atoms: _223  and  _224
REMARK   87  A    between atoms: _229  and  _231
REMARK   88  A    between atoms: _231  and  _232
REMARK   89  A    between atoms: _231  and  _234
REMARK   90  A    between atoms: _234  and  _235
REMARK   91  A    between atoms: _235  and  _236
REMARK   92  A    between atoms: _238  and  _240
REMARK   93  A    between atoms: _240  and  _241
REMARK   94  A    between atoms: _240  and  _243
REMARK   95  A    between atoms: _243  and  _244
REMARK   96  A    between atoms: _249  and  _250
REMARK   97  A    between atoms: _252  and  _254
REMARK   98  A    between atoms: _254  and  _255
REMARK   99  A    between atoms: _254  and  _257
REMARK  100  A    between atoms: _257  and  _258
REMARK  101  A    between atoms: _261  and  _263
REMARK  102  A    between atoms: _263  and  _264
REMARK  103  A    between atoms: _263  and  _266
REMARK  104  A    between atoms: _266  and  _267
REMARK  105  A    between atoms: _267  and  _484
REMARK  106  A    between atoms: _268  and  _270
REMARK  107  A    between atoms: _270  and  _271
REMARK  108  A    between atoms: _270  and  _273
REMARK  109  A    between atoms: _273  and  _274
REMARK  110  A    between atoms: _277  and  _279
REMARK  111  A    between atoms: _279  and  _280
REMARK  112  A    between atoms: _279  and  _282
REMARK  113  A    between atoms: _282  and  _283
REMARK  114  A    between atoms: _288  and  _289
REMARK  115  A    between atoms: _291  and  _293
REMARK  116  A    between atoms: _293  and  _294
REMARK  117  A    between atoms: _293  and  _296
REMARK  118  A    between atoms: _296  and  _297
REMARK  119  A    between atoms: _302  and  _303
REMARK  120  A    between atoms: _305  and  _307
REMARK  121  A    between atoms: _307  and  _308
REMARK  122  A    between atoms: _307  and  _310
REMARK  123  A    between atoms: _310  and  _311
REMARK  124  A    between atoms: _311  and  _312
REMARK  125  A    between atoms: _315  and  _317
REMARK  126  A    between atoms: _317  and  _318
REMARK  127  A    between atoms: _317  and  _320
REMARK  128  A    between atoms: _320  and  _321
REMARK  129  A    between atoms: _326  and  _327
REMARK  130  A    between atoms: _329  and  _331
REMARK  131  A    between atoms: _331  and  _332
REMARK  132  A    between atoms: _331  and  _334
REMARK  133  A    between atoms: _334  and  _335
REMARK  134  A    between atoms: _340  and  _342
REMARK  135  A    between atoms: _342  and  _343
REMARK  136  A    between atoms: _342  and  _345
REMARK  137  A    between atoms: _345  and  _346
REMARK  138  A    between atoms: _349  and  _351
REMARK  139  A    between atoms: _351  and  _352
REMARK  140  A    between atoms: _351  and  _354
REMARK  141  A    between atoms: _354  and  _355
REMARK  142  A    between atoms: _360  and  _362
REMARK  143  A    between atoms: _362  and  _363
REMARK  144  A    between atoms: _362  and  _365
REMARK  145  A    between atoms: _365  and  _366
REMARK  146  A    between atoms: _376  and  _378
REMARK  147  A    between atoms: _378  and  _379
REMARK  148  A    between atoms: _378  and  _381
REMARK  149  A    between atoms: _381  and  _382
REMARK  150  A    between atoms: _388  and  _390
REMARK  151  A    between atoms: _390  and  _391
REMARK  152  A    between atoms: _390  and  _393
REMARK  153  A    between atoms: _393  and  _394
REMARK  154  A    between atoms: _397  and  _399
REMARK  155  A    between atoms: _399  and  _400
REMARK  156  A    between atoms: _399  and  _402
REMARK  157  A    between atoms: _402  and  _403
REMARK  158  A    between atoms: _406  and  _408
REMARK  159  A    between atoms: _408  and  _409
REMARK  160  A    between atoms: _408  and  _411
REMARK  161  A    between atoms: _411  and  _412
REMARK  162  A    between atoms: _412  and  _413
REMARK  163  A    between atoms: _413  and  _414
REMARK  164  A    between atoms: _423  and  _425
REMARK  165  A    between atoms: _425  and  _426
REMARK  166  A    between atoms: _425  and  _428
REMARK  167  A    between atoms: _428  and  _429
REMARK  168  A    between atoms: _434  and  _436
REMARK  169  A    between atoms: _436  and  _437
REMARK  170  A    between atoms: _436  and  _439
REMARK  171  A    between atoms: _439  and  _440
REMARK  172  A    between atoms: _441  and  _442
REMARK  173  A    between atoms: _451  and  _453
REMARK  174  A    between atoms: _453  and  _454
REMARK  175  A    between atoms: _457  and  _459
REMARK  176  A    between atoms: _459  and  _460
REMARK  177  A    between atoms: _462  and  _464
REMARK  178  A    between atoms: _464  and  _465
REMARK  179  A    between atoms: _464  and  _467
REMARK  180  A    between atoms: _467  and  _468
REMARK  181  A    between atoms: _478  and  _480
REMARK  182  A    between atoms: _480  and  _481
REMARK  183  A    between atoms: _480  and  _483
REMARK  184  A    between atoms: _483  and  _484
REMARK  185  A    between atoms: _485  and  _487
REMARK  186  A    between atoms: _487  and  _488
REMARK  187  A    between atoms: _491  and  _493
REMARK  188  A    between atoms: _493  and  _494
REMARK  189  A    between atoms: _493  and  _496
REMARK  190  A    between atoms: _496  and  _497
REMARK  191  A    between atoms: _500  and  _502
REMARK  192  A    between atoms: _502  and  _503
REMARK  193  A    between atoms: _502  and  _505
REMARK  194  A    between atoms: _505  and  _506
REMARK  195  A    between atoms: _511  and  _512
REMARK  196  A    between atoms: _514  and  _516
REMARK  197  A    between atoms: _516  and  _517
REMARK  198  A    between atoms: _516  and  _519
REMARK  199  A    between atoms: _519  and  _520
REMARK  200  A    between atoms: _522  and  _524
REMARK  201  A    between atoms: _524  and  _525
REMARK  202  A    between atoms: _524  and  _527
REMARK  203  A    between atoms: _527  and  _528
REMARK  204  A    between atoms: _534  and  _536
REMARK  205  A    between atoms: _536  and  _537
REMARK  206  A    between atoms: _536  and  _539
REMARK  207  A    between atoms: _539  and  _540
REMARK  208  A    between atoms: _543  and  _545
REMARK  209  A    between atoms: _545  and  _546
REMARK  210  A    between atoms: _545  and  _548
REMARK  211  A    between atoms: _548  and  _549
REMARK  212  A    between atoms: _551  and  _553
REMARK  213  A    between atoms: _553  and  _554
REMARK  214  A    between atoms: _553  and  _556
REMARK  215  A    between atoms: _556  and  _557
REMARK  216  A    between atoms: _562  and  _564
REMARK  217  A    between atoms: _564  and  _565
REMARK  218  A    between atoms: _564  and  _567
REMARK  219  A    between atoms: _567  and  _568
REMARK  220  A    between atoms: _571  and  _573
REMARK  221  A    between atoms: _573  and  _574
REMARK  222  A    between atoms: _573  and  _576
REMARK  223  A    between atoms: _576  and  _577
REMARK  224  A    between atoms: _582  and  _583
REMARK  225  A    between atoms: _585  and  _587
REMARK  226  A    between atoms: _587  and  _588
REMARK  227  A    between atoms: _587  and  _590
REMARK  228  A    between atoms: _590  and  _591
REMARK  229  A    between atoms: _596  and  _597
REMARK  230  A    between atoms: _599  and  _601
REMARK  231  A    between atoms: _601  and  _602
REMARK  232  A    between atoms: _601  and  _604
REMARK  233  A    between atoms: _607  and  _609
REMARK  234  A    between atoms: _609  and  _610
REMARK  235  A    between atoms: _609  and  _612
REMARK  236  A    between atoms: _612  and  _613
REMARK  237  A    between atoms: _618  and  _620
REMARK  238  A    between atoms: _620  and  _621
REMARK  239  A    between atoms: _624  and  _626
REMARK  240  A    between atoms: _626  and  _627
REMARK  241  A    between atoms: _626  and  _629
REMARK  242  A    between atoms: _629  and  _630
REMARK  243  A    between atoms: _630  and  _631
REMARK  244  A    between atoms: _631  and  _632
REMARK  245  A    between atoms: _641  and  _643
REMARK  246  A    between atoms: _643  and  _644
REMARK  247  A    between atoms: _643  and  _646
REMARK  248  A    between atoms: _646  and  _647
REMARK  249  A    between atoms: _650  and  _652
REMARK  250  A    between atoms: _652  and  _653
REMARK  251  A    between atoms: _652  and  _655
REMARK  252  A    between atoms: _655  and  _656
REMARK  253  A    between atoms: _659  and  _661
REMARK  254  A    between atoms: _661  and  _662
REMARK  255  A    between atoms: _661  and  _664
REMARK  256  A    between atoms: _664  and  _665
REMARK                            x       y       z     vdW  Elec       q    Type
REMARK                         _______ _______ _______ _____ _____    ______ ____
ROOT
ATOM      1  CA  ASN A   1      -3.354  22.839   5.297  0.00  0.00    +0.154 C 
ENDROOT
BRANCH   1   2
ATOM      2  C   ASN A   1      -3.373  23.427   6.699  0.00  0.00    +0.239 C 
ATOM      3  O   ASN A   1      -2.349  23.541   7.382  0.00  0.00    -0.274 OA
ATOM      4  N   GLY A   2      -4.555  23.771   7.190  0.00  0.00    -0.297 N 
ATOM      5  H   GLY A   2      -5.377  23.738   6.554  0.00  0.00    +0.150 HD
BRANCH   4   6
ATOM      6  CA  GLY A   2      -4.772  24.192   8.567  0.00  0.00    +0.163 C 
BRANCH   6   7
ATOM      7  C   GLY A   2      -4.406  25.583   8.990  0.00  0.00    +0.229 C 
ATOM      8  O   GLY A   2      -5.091  26.207   9.815  0.00  0.00    -0.286 OA
ENDBRANCH   6   7
ENDBRANCH   4   6
ENDBRANCH   1   2
BRANCH   1   9
ATOM      9  N   ASN A   1      -4.614  23.104   4.593  0.00  0.00    -0.238 NA
ATOM     10  H   ASN A   1      -4.986  24.074   4.541  0.00  0.00    +0.142 HD
ENDBRANCH   1   9
BRANCH   1  11
ATOM     11  CB  ASN A   1      -2.204  23.487   4.509  0.00  0.00    +0.111 C 
BRANCH  11  12
ATOM     12  CG  ASN A   1      -0.833  22.899   4.865  0.00  0.00    +0.221 C 
ATOM     13  OD1 ASN A   1      -0.756  21.692   5.104  0.00  0.00    -0.275 OA
ATOM     14  ND2 ASN A   1       0.179  23.762   4.873  0.00  0.00    -0.329 N 
ATOM     15 HD21 ASN A   1       1.140  23.434   5.096  0.00  0.00    +0.145 HD
ATOM     16 HD22 ASN A   1       0.009  24.765   4.657  0.00  0.00    +0.145 HD
ENDBRANCH  11  12
ENDBRANCH   1  11
TORSDOF 6
REMARK  Name = ../refined-set-2016/1b6h/1b6h_pocket.pdb
REMARK  256 active torsions:
REMARK  status: ('A' for Active; 'I' for Inactive)
REMARK    1  A    between atoms: _1  and  _3
REMARK    2  A    between atoms: _3  and  _4
REMARK    3  A    between atoms: _3  and  _6
REMARK    4  A    between atoms: _6  and  _7
REMARK    5  A    between atoms: _12  and  _14
REMARK    6  A    between atoms: _14  and  _15
REMARK    7  A    between atoms: _17  and  _19
REMARK    8  A    between atoms: _19  and  _20
REMARK    9  A    between atoms: _19  and  _22
REMARK   10  A    between atoms: _22  and  _23
REMARK   11  A    between atoms: _23  and  _24
REMARK   12  A    between atoms: _29  and  _31
REMARK   13  A    between atoms: _31  and  _32
REMARK   14  A    between atoms: _31  and  _34
REMARK   15  A    between atoms: _34  and  _35
REMARK   16  A    between atoms: _38  and  _40
REMARK   17  A    between atoms: _40  and  _41
REMARK   18  A    between atoms: _40  and  _43
REMARK   19  A    between atoms: _43  and  _44
REMARK   20  A    between atoms: _44  and  _45
REMARK   21  A    between atoms: _48  and  _50
REMARK   22  A    between atoms: _50  and  _51
REMARK   23  A    between atoms: _53  and  _55
REMARK   24  A    between atoms: _55  and  _56
REMARK   25  A    between atoms: _55  and  _58
REMARK   26  A    between atoms: _62  and  _63
REMARK   27  A    between atoms: _68  and  _70
REMARK   28  A    between atoms: _70  and  _71
REMARK   29  A    between atoms: _70  and  _73
REMARK   30  A    between atoms: _73  and  _74
REMARK   31  A    between atoms: _74  and  _75
REMARK   32  A    between atoms: _78  and  _80
REMARK   33  A    between atoms: _80  and  _81
REMARK   34  A    between atoms: _80  and  _83
REMARK   35  A    between atoms: _83  and  _84
REMARK   36  A    between atoms: _86  and  _88
REMARK   37  A    between atoms: _88  and  _89
REMARK   38  A    between atoms: _88  and  _91
REMARK   39  A    between atoms: _91  and  _92
REMARK   40  A    between atoms: _97  and  _99
REMARK   41  A    between atoms: _99  and  _100
REMARK   42  A    between atoms: _99  and  _102
REMARK   43  A    between atoms: _102  and  _103
REMARK   44  A    between atoms: _103  and  _104
REMARK   45  A    between atoms: _104  and  _105
REMARK   46  A    between atoms: _115  and  _116
REMARK   47  A    between atoms: _121  and  _123
REMARK   48  A    between atoms: _123  and  _124
REMARK   49  A    between atoms: _123  and  _126
REMARK   50  A    between atoms: _126  and  _127
REMARK   51  A    between atoms: _132  and  _133
REMARK   52  A    between atoms: _135  and  _137
REMARK   53  A    between atoms: _137  and  _138
REMARK   54  A    between atoms: _137  and  _140
REMARK   55  A    between atoms: _140  and  _141
REMARK   56  A    between atoms: _146  and  _147
REMARK   57  A    between atoms: _149  and  _151
REMARK   58  A    between atoms: _151  and  _152
REMARK   59  A    between atoms: _151  and  _154
REMARK   60  A    between atoms: _157  and  _159
REMARK   61  A    between atoms: _159  and  _160
REMARK   62  A    between atoms: _159  and  _162
REMARK   63  A    between atoms: _162  and  _163
REMARK   64  A    between atoms: _169  and  _170
REMARK   65  A    between atoms: _175  and  _177
REMARK   66  A    between atoms: _177  and  _178
REMARK   67  A    between atoms: _177  and  _180
REMARK   68  A    between atoms: _180  and  _181
REMARK   69  A    between atoms: _183  and  _185
REMARK   70  A    between atoms: _185  and  _186
REMARK   71  A    between atoms: _185  and  _188
REMARK   72  A    between atoms: _188  and  _189
REMARK   73  A    between atoms: _189  and  _190
REMARK   74  A    between atoms: _193  and  _195
REMARK   75  A    between atoms: _195  and  _196
REMARK   76  A    between atoms: _195  and  _198
REMARK   77  A    between atoms: _198  and  _199
REMARK   78  A    between atoms: _204  and  _205
REMARK   79  A    between atoms: _207  and  _209
REMARK   80  A    between atoms: _209  and  _210
REMARK   81  A    between atoms: _209  and  _212
REMARK   82  A    between atoms: _212  and  _213
REMARK   83  A    between atoms: _218  and  _220
REMARK   84  A    between atoms: _220  and  _221
REMARK   85  A    between atoms: _220  and  _223
REMARK   86  A    between atoms: _223  and  _224
REMARK   87  A    between atoms: _229  and  _231
REMARK   88  A    between atoms: _231  and  _232
REMARK   89  A    between atoms: _231  and  _234
REMARK   90  A    between atoms: _234  and  _235
REMARK   91  A    between atoms: _235  and  _236
REMARK   92  A    between atoms: _238  and  _240
REMARK   93  A    between atoms: _240  and  _241
REMARK   94  A    between atoms: _240  and  _243
REMARK   95  A    between atoms: _243  and  _244
REMARK   96  A    between atoms: _249  and  _250
REMARK   97  A    between atoms: _252  and  _254
REMARK   98  A    between atoms: _254  and  _255
REMARK   99  A    between atoms: _254  and  _257
REMARK  100  A    between atoms: _257  and  _258
REMARK  101  A    between atoms: _261  and  _263
REMARK  102  A    between atoms: _263  and  _264
REMARK  103  A    between atoms: _263  and  _266
REMARK  104  A    between atoms: _266  and  _267
REMARK  105  A    between atoms: _267  and  _484
REMARK  106  A    between atoms: _268  and  _270
REMARK  107  A    between atoms: _270  and  _271
REMARK  108  A    between atoms: _270  and  _273
REMARK  109  A    between atoms: _273  and  _274
REMARK  110  A    between atoms: _277  and  _279
REMARK  111  A    between atoms: _279  and  _280
REMARK  112  A    between atoms: _279  and  _282
REMARK  113  A    between atoms: _282  and  _283
REMARK  114  A    between atoms: _288  and  _289
REMARK  115  A    between atoms: _291  and  _293
REMARK  116  A    between atoms: _293  and  _294
REMARK  117  A    between atoms: _293  and  _296
REMARK  118  A    between atoms: _296  and  _297
REMARK  119  A    between atoms: _302  and  _303
REMARK  120  A    between atoms: _305  and  _307
REMARK  121  A    between atoms: _307  and  _308
REMARK  122  A    between atoms: _307  and  _310
REMARK  123  A    between atoms: _310  and  _311
REMARK  124  A    between atoms: _311  and  _312
REMARK  125  A    between atoms: _315  and  _317
REMARK  126  A    between atoms: _317  and  _318
REMARK  127  A    between atoms: _317  and  _320
REMARK  128  A    between atoms: _320  and  _321
REMARK  129  A    between atoms: _326  and  _327
REMARK  130  A    between atoms: _329  and  _331
REMARK  131  A    between atoms: _331  and  _332
REMARK  132  A    between atoms: _331  and  _334
REMARK  133  A    between atoms: _334  and  _335
REMARK  134  A    between atoms: _340  and  _342
REMARK  135  A    between atoms: _342  and  _343
REMARK  136  A    between atoms: _342  and  _345
REMARK  137  A    between atoms: _345  and  _346
REMARK  138  A    between atoms: _349  and  _351
REMARK  139  A    between atoms: _351  and  _352
REMARK  140  A    between atoms: _351  and  _354
REMARK  141  A    between atoms: _354  and  _355
REMARK  142  A    between atoms: _360  and  _362
REMARK  143  A    between atoms: _362  and  _363
REMARK  144  A    between atoms: _362  and  _365
REMARK  145  A    between atoms: _365  and  _366
REMARK  146  A    between atoms: _376  and  _378
REMARK  147  A    between atoms: _378  and  _379
REMARK  148  A    between atoms: _378  and  _381
REMARK  149  A    between atoms: _381  and  _382
REMARK  150  A    between atoms: _388  and  _390
REMARK  151  A    between atoms: _390  and  _391
REMARK  152  A    between atoms: _390  and  _393
REMARK  153  A    between atoms: _393  and  _394
REMARK  154  A    between atoms: _397  and  _399
REMARK  155  A    between atoms: _399  and  _400
REMARK  156  A    between atoms: _399  and  _402
REMARK  157  A    between atoms: _402  and  _403
REMARK  158  A    between atoms: _406  and  _408
REMARK  159  A    between atoms: _408  and  _409
REMARK  160  A    between atoms: _408  and  _411
REMARK  161  A    between atoms: _411  and  _412
REMARK  162  A    between atoms: _412  and  _413
REMARK  163  A    between atoms: _413  and  _414
REMARK  164  A    between atoms: _423  and  _425
REMARK  165  A    between atoms: _425  and  _426
REMARK  166  A    between atoms: _425  and  _428
REMARK  167  A    between atoms: _428  and  _429
REMARK  168  A    between atoms: _434  and  _436
REMARK  169  A    between atoms: _436  and  _437
REMARK  170  A    between atoms: _436  and  _439
REMARK  171  A    between atoms: _439  and  _440
REMARK  172  A    between atoms: _441  and  _442
REMARK  173  A    between atoms: _451  and  _453
REMARK  174  A    between atoms: _453  and  _454
REMARK  175  A    between atoms: _457  and  _459
REMARK  176  A    between atoms: _459  and  _460
REMARK  177  A    between atoms: _462  and  _464
REMARK  178  A    between atoms: _464  and  _465
REMARK  179  A    between atoms: _464  and  _467
REMARK  180  A    between atoms: _467  and  _468
REMARK  181  A    between atoms: _478  and  _480
REMARK  182  A    between atoms: _480  and  _481
REMARK  183  A    between atoms: _480  and  _483
REMARK  184  A    between atoms: _483  and  _484
REMARK  185  A    between atoms: _485  and  _487
REMARK  186  A    between atoms: _487  and  _488
REMARK  187  A    between atoms: _491  and  _493
REMARK  188  A    between atoms: _493  and  _494
REMARK  189  A    between atoms: _493  and  _496
REMARK  190  A    between atoms: _496  and  _497
REMARK  191  A    between atoms: _500  and  _502
REMARK  192  A    between atoms: _502  and  _503
REMARK  193  A    between atoms: _502  and  _505
REMARK  194  A    between atoms: _505  and  _506
REMARK  195  A    between atoms: _511  and  _512
REMARK  196  A    between atoms: _514  and  _516
REMARK  197  A    between atoms: _516  and  _517
REMARK  198  A    between atoms: _516  and  _519
REMARK  199  A    between atoms: _519  and  _520
REMARK  200  A    between atoms: _522  and  _524
REMARK  201  A    between atoms: _524  and  _525
REMARK  202  A    between atoms: _524  and  _527
REMARK  203  A    between atoms: _527  and  _528
REMARK  204  A    between atoms: _534  and  _536
REMARK  205  A    between atoms: _536  and  _537
REMARK  206  A    between atoms: _536  and  _539
REMARK  207  A    between atoms: _539  and  _540
REMARK  208  A    between atoms: _543  and  _545
REMARK  209  A    between atoms: _545  and  _546
REMARK  210  A    between atoms: _545  and  _548
REMARK  211  A    between atoms: _548  and  _549
REMARK  212  A    between atoms: _551  and  _553
REMARK  213  A    between atoms: _553  and  _554
REMARK  214  A    between atoms: _553  and  _556
REMARK  215  A    between atoms: _556  and  _557
REMARK  216  A    between atoms: _562  and  _564
REMARK  217  A    between atoms: _564  and  _565
REMARK  218  A    between atoms: _564  and  _567
REMARK  219  A    between atoms: _567  and  _568
REMARK  220  A    between atoms: _571  and  _573
REMARK  221  A    between atoms: _573  and  _574
REMARK  222  A    between atoms: _573  and  _576
REMARK  223  A    between atoms: _576  and  _577
REMARK  224  A    between atoms: _582  and  _583
REMARK  225  A    between atoms: _585  and  _587
REMARK  226  A    between atoms: _587  and  _588
REMARK  227  A    between atoms: _587  and  _590
REMARK  228  A    between atoms: _590  and  _591
REMARK  229  A    between atoms: _596  and  _597
REMARK  230  A    between atoms: _599  and  _601
REMARK  231  A    between atoms: _601  and  _602
REMARK  232  A    between atoms: _601  and  _604
REMARK  233  A    between atoms: _607  and  _609
REMARK  234  A    between atoms: _609  and  _610
REMARK  235  A    between atoms: _609  and  _612
REMARK  236  A    between atoms: _612  and  _613
REMARK  237  A    between atoms: _618  and  _620
REMARK  238  A    between atoms: _620  and  _621
REMARK  239  A    between atoms: _624  and  _626
REMARK  240  A    between atoms: _626  and  _627
REMARK  241  A    between atoms: _626  and  _629
REMARK  242  A    between atoms: _629  and  _630
REMARK  243  A    between atoms: _630  and  _631
REMARK  244  A    between atoms: _631  and  _632
REMARK  245  A    between atoms: _641  and  _643
REMARK  246  A    between atoms: _643  and  _644
REMARK  247  A    between atoms: _643  and  _646
REMARK  248  A    between atoms: _646  and  _647
REMARK  249  A    between atoms: _650  and  _652
REMARK  250  A    between atoms: _652  and  _653
REMARK  251  A    between atoms: _652  and  _655
REMARK  252  A    between atoms: _655  and  _656
REMARK  253  A    between atoms: _659  and  _661
REMARK  254  A    between atoms: _661  and  _662
REMARK  255  A    between atoms: _661  and  _664
REMARK  256  A    between atoms: _664  and  _665
REMARK                            x       y       z     vdW  Elec       q    Type
REMARK                         _______ _______ _______ _____ _____    ______ ____
ROOT
ATOM      1  CB  GLN A   1       6.627  28.458  10.408  0.00  0.00    +0.035 C 
ENDROOT
BRANCH   1   2
ATOM      2  CA  GLN A   1       5.768  29.330   9.487  0.00  0.00    +0.134 C 
BRANCH   2   3
ATOM      3  N   GLN A   1       4.741  28.517   8.834  0.00  0.00    -0.239 NA
ATOM      4  H   GLN A   1       4.640  27.509   9.069  0.00  0.00    +0.142 HD
ENDBRANCH   2   3
BRANCH   2   5
ATOM      5  C   GLN A   1       6.732  29.854   8.408  0.00  0.00    +0.224 C 
ATOM      6  O   GLN A   1       7.236  30.981   8.472  0.00  0.00    -0.287 OA
ENDBRANCH   2   5
ENDBRANCH   1   2
BRANCH   1   7
ATOM      7  CG  GLN A   1       6.013  28.166  11.772  0.00  0.00    +0.087 C 
BRANCH   7   8
ATOM      8  CD  GLN A   1       6.894  27.142  12.496  0.00  0.00    +0.219 C 
ATOM      9  NE2 GLN A   1       7.447  27.490  13.649  0.00  0.00    -0.329 N 
ATOM     10 HE21 GLN A   1       8.041  26.811  14.167  0.00  0.00    +0.145 HD
ATOM     11 HE22 GLN A   1       7.287  28.442  14.036  0.00  0.00    +0.145 HD
ATOM     12  OE1 GLN A   1       7.021  26.042  11.953  0.00  0.00    -0.275 OA
ENDBRANCH   7   8
ENDBRANCH   1   7
TORSDOF 5
REMARK  Name = ../refined-set-2016/1b6h/1b6h_pocket.pdb
REMARK  256 active torsions:
REMARK  status: ('A' for Active; 'I' for Inactive)
REMARK    1  A    between atoms: _1  and  _3
REMARK    2  A    between atoms: _3  and  _4
REMARK    3  A    between atoms: _3  and  _6
REMARK    4  A    between atoms: _6  and  _7
REMARK    5  A    between atoms: _12  and  _14
REMARK    6  A    between atoms: _14  and  _15
REMARK    7  A    between atoms: _17  and  _19
REMARK    8  A    between atoms: _19  and  _20
REMARK    9  A    between atoms: _19  and  _22
REMARK   10  A    between atoms: _22  and  _23
REMARK   11  A    between atoms: _23  and  _24
REMARK   12  A    between atoms: _29  and  _31
REMARK   13  A    between atoms: _31  and  _32
REMARK   14  A    between atoms: _31  and  _34
REMARK   15  A    between atoms: _34  and  _35
REMARK   16  A    between atoms: _38  and  _40
REMARK   17  A    between atoms: _40  and  _41
REMARK   18  A    between atoms: _40  and  _43
REMARK   19  A    between atoms: _43  and  _44
REMARK   20  A    between atoms: _44  and  _45
REMARK   21  A    between atoms: _48  and  _50
REMARK   22  A    between atoms: _50  and  _51
REMARK   23  A    between atoms: _53  and  _55
REMARK   24  A    between atoms: _55  and  _56
REMARK   25  A    between atoms: _55  and  _58
REMARK   26  A    between atoms: _62  and  _63
REMARK   27  A    between atoms: _68  and  _70
REMARK   28  A    between atoms: _70  and  _71
REMARK   29  A    between atoms: _70  and  _73
REMARK   30  A    between atoms: _73  and  _74
REMARK   31  A    between atoms: _74  and  _75
REMARK   32  A    between atoms: _78  and  _80
REMARK   33  A    between atoms: _80  and  _81
REMARK   34  A    between atoms: _80  and  _83
REMARK   35  A    between atoms: _83  and  _84
REMARK   36  A    between atoms: _86  and  _88
REMARK   37  A    between atoms: _88  and  _89
REMARK   38  A    between atoms: _88  and  _91
REMARK   39  A    between atoms: _91  and  _92
REMARK   40  A    between atoms: _97  and  _99
REMARK   41  A    between atoms: _99  and  _100
REMARK   42  A    between atoms: _99  and  _102
REMARK   43  A    between atoms: _102  and  _103
REMARK   44  A    between atoms: _103  and  _104
REMARK   45  A    between atoms: _104  and  _105
REMARK   46  A    between atoms: _115  and  _116
REMARK   47  A    between atoms: _121  and  _123
REMARK   48  A    between atoms: _123  and  _124
REMARK   49  A    between atoms: _123  and  _126
REMARK   50  A    between atoms: _126  and  _127
REMARK   51  A    between atoms: _132  and  _133
REMARK   52  A    between atoms: _135  and  _137
REMARK   53  A    between atoms: _137  and  _138
REMARK   54  A    between atoms: _137  and  _140
REMARK   55  A    between atoms: _140  and  _141
REMARK   56  A    between atoms: _146  and  _147
REMARK   57  A    between atoms: _149  and  _151
REMARK   58  A    between atoms: _151  and  _152
REMARK   59  A    between atoms: _151  and  _154
REMARK   60  A    between atoms: _157  and  _159
REMARK   61  A    between atoms: _159  and  _160
REMARK   62  A    between atoms: _159  and  _162
REMARK   63  A    between atoms: _162  and  _163
REMARK   64  A    between atoms: _169  and  _170
REMARK   65  A    between atoms: _175  and  _177
REMARK   66  A    between atoms: _177  and  _178
REMARK   67  A    between atoms: _177  and  _180
REMARK   68  A    between atoms: _180  and  _181
REMARK   69  A    between atoms: _183  and  _185
REMARK   70  A    between atoms: _185  and  _186
REMARK   71  A    between atoms: _185  and  _188
REMARK   72  A    between atoms: _188  and  _189
REMARK   73  A    between atoms: _189  and  _190
REMARK   74  A    between atoms: _193  and  _195
REMARK   75  A    between atoms: _195  and  _196
REMARK   76  A    between atoms: _195  and  _198
REMARK   77  A    between atoms: _198  and  _199
REMARK   78  A    between atoms: _204  and  _205
REMARK   79  A    between atoms: _207  and  _209
REMARK   80  A    between atoms: _209  and  _210
REMARK   81  A    between atoms: _209  and  _212
REMARK   82  A    between atoms: _212  and  _213
REMARK   83  A    between atoms: _218  and  _220
REMARK   84  A    between atoms: _220  and  _221
REMARK   85  A    between atoms: _220  and  _223
REMARK   86  A    between atoms: _223  and  _224
REMARK   87  A    between atoms: _229  and  _231
REMARK   88  A    between atoms: _231  and  _232
REMARK   89  A    between atoms: _231  and  _234
REMARK   90  A    between atoms: _234  and  _235
REMARK   91  A    between atoms: _235  and  _236
REMARK   92  A    between atoms: _238  and  _240
REMARK   93  A    between atoms: _240  and  _241
REMARK   94  A    between atoms: _240  and  _243
REMARK   95  A    between atoms: _243  and  _244
REMARK   96  A    between atoms: _249  and  _250
REMARK   97  A    between atoms: _252  and  _254
REMARK   98  A    between atoms: _254  and  _255
REMARK   99  A    between atoms: _254  and  _257
REMARK  100  A    between atoms: _257  and  _258
REMARK  101  A    between atoms: _261  and  _263
REMARK  102  A    between atoms: _263  and  _264
REMARK  103  A    between atoms: _263  and  _266
REMARK  104  A    between atoms: _266  and  _267
REMARK  105  A    between atoms: _267  and  _484
REMARK  106  A    between atoms: _268  and  _270
REMARK  107  A    between atoms: _270  and  _271
REMARK  108  A    between atoms: _270  and  _273
REMARK  109  A    between atoms: _273  and  _274
REMARK  110  A    between atoms: _277  and  _279
REMARK  111  A    between atoms: _279  and  _280
REMARK  112  A    between atoms: _279  and  _282
REMARK  113  A    between atoms: _282  and  _283
REMARK  114  A    between atoms: _288  and  _289
REMARK  115  A    between atoms: _291  and  _293
REMARK  116  A    between atoms: _293  and  _294
REMARK  117  A    between atoms: _293  and  _296
REMARK  118  A    between atoms: _296  and  _297
REMARK  119  A    between atoms: _302  and  _303
REMARK  120  A    between atoms: _305  and  _307
REMARK  121  A    between atoms: _307  and  _308
REMARK  122  A    between atoms: _307  and  _310
REMARK  123  A    between atoms: _310  and  _311
REMARK  124  A    between atoms: _311  and  _312
REMARK  125  A    between atoms: _315  and  _317
REMARK  126  A    between atoms: _317  and  _318
REMARK  127  A    between atoms: _317  and  _320
REMARK  128  A    between atoms: _320  and  _321
REMARK  129  A    between atoms: _326  and  _327
REMARK  130  A    between atoms: _329  and  _331
REMARK  131  A    between atoms: _331  and  _332
REMARK  132  A    between atoms: _331  and  _334
REMARK  133  A    between atoms: _334  and  _335
REMARK  134  A    between atoms: _340  and  _342
REMARK  135  A    between atoms: _342  and  _343
REMARK  136  A    between atoms: _342  and  _345
REMARK  137  A    between atoms: _345  and  _346
REMARK  138  A    between atoms: _349  and  _351
REMARK  139  A    between atoms: _351  and  _352
REMARK  140  A    between atoms: _351  and  _354
REMARK  141  A    between atoms: _354  and  _355
REMARK  142  A    between atoms: _360  and  _362
REMARK  143  A    between atoms: _362  and  _363
REMARK  144  A    between atoms: _362  and  _365
REMARK  145  A    between atoms: _365  and  _366
REMARK  146  A    between atoms: _376  and  _378
REMARK  147  A    between atoms: _378  and  _379
REMARK  148  A    between atoms: _378  and  _381
REMARK  149  A    between atoms: _381  and  _382
REMARK  150  A    between atoms: _388  and  _390
REMARK  151  A    between atoms: _390  and  _391
REMARK  152  A    between atoms: _390  and  _393
REMARK  153  A    between atoms: _393  and  _394
REMARK  154  A    between atoms: _397  and  _399
REMARK  155  A    between atoms: _399  and  _400
REMARK  156  A    between atoms: _399  and  _402
REMARK  157  A    between atoms: _402  and  _403
REMARK  158  A    between atoms: _406  and  _408
REMARK  159  A    between atoms: _408  and  _409
REMARK  160  A    between atoms: _408  and  _411
REMARK  161  A    between atoms: _411  and  _412
REMARK  162  A    between atoms: _412  and  _413
REMARK  163  A    between atoms: _413  and  _414
REMARK  164  A    between atoms: _423  and  _425
REMARK  165  A    between atoms: _425  and  _426
REMARK  166  A    between atoms: _425  and  _428
REMARK  167  A    between atoms: _428  and  _429
REMARK  168  A    between atoms: _434  and  _436
REMARK  169  A    between atoms: _436  and  _437
REMARK  170  A    between atoms: _436  and  _439
REMARK  171  A    between atoms: _439  and  _440
REMARK  172  A    between atoms: _441  and  _442
REMARK  173  A    between atoms: _451  and  _453
REMARK  174  A    between atoms: _453  and  _454
REMARK  175  A    between atoms: _457  and  _459
REMARK  176  A    between atoms: _459  and  _460
REMARK  177  A    between atoms: _462  and  _464
REMARK  178  A    between atoms: _464  and  _465
REMARK  179  A    between atoms: _464  and  _467
REMARK  180  A    between atoms: _467  and  _468
REMARK  181  A    between atoms: _478  and  _480
REMARK  182  A    between atoms: _480  and  _481
REMARK  183  A    between atoms: _480  and  _483
REMARK  184  A    between atoms: _483  and  _484
REMARK  185  A    between atoms: _485  and  _487
REMARK  186  A    between atoms: _487  and  _488
REMARK  187  A    between atoms: _491  and  _493
REMARK  188  A    between atoms: _493  and  _494
REMARK  189  A    between atoms: _493  and  _496
REMARK  190  A    between atoms: _496  and  _497
REMARK  191  A    between atoms: _500  and  _502
REMARK  192  A    between atoms: _502  and  _503
REMARK  193  A    between atoms: _502  and  _505
REMARK  194  A    between atoms: _505  and  _506
REMARK  195  A    between atoms: _511  and  _512
REMARK  196  A    between atoms: _514  and  _516
REMARK  197  A    between atoms: _516  and  _517
REMARK  198  A    between atoms: _516  and  _519
REMARK  199  A    between atoms: _519  and  _520
REMARK  200  A    between atoms: _522  and  _524
REMARK  201  A    between atoms: _524  and  _525
REMARK  202  A    between atoms: _524  and  _527
REMARK  203  A    between atoms: _527  and  _528
REMARK  204  A    between atoms: _534  and  _536
REMARK  205  A    between atoms: _536  and  _537
REMARK  206  A    between atoms: _536  and  _539
REMARK  207  A    between atoms: _539  and  _540
REMARK  208  A    between atoms: _543  and  _545
REMARK  209  A    between atoms: _545  and  _546
REMARK  210  A    between atoms: _545  and  _548
REMARK  211  A    between atoms: _548  and  _549
REMARK  212  A    between atoms: _551  and  _553
REMARK  213  A    between atoms: _553  and  _554
REMARK  214  A    between atoms: _553  and  _556
REMARK  215  A    between atoms: _556  and  _557
REMARK  216  A    between atoms: _562  and  _564
REMARK  217  A    between atoms: _564  and  _565
REMARK  218  A    between atoms: _564  and  _567
REMARK  219  A    between atoms: _567  and  _568
REMARK  220  A    between atoms: _571  and  _573
REMARK  221  A    between atoms: _573  and  _574
REMARK  222  A    between atoms: _573  and  _576
REMARK  223  A    between atoms: _576  and  _577
REMARK  224  A    between atoms: _582  and  _583
REMARK  225  A    between atoms: _585  and  _587
REMARK  226  A    between atoms: _587  and  _588
REMARK  227  A    between atoms: _587  and  _590
REMARK  228  A    between atoms: _590  and  _591
REMARK  229  A    between atoms: _596  and  _597
REMARK  230  A    between atoms: _599  and  _601
REMARK  231  A    between atoms: _601  and  _602
REMARK  232  A    between atoms: _601  and  _604
REMARK  233  A    between atoms: _607  and  _609
REMARK  234  A    between atoms: _609  and  _610
REMARK  235  A    between atoms: _609  and  _612
REMARK  236  A    between atoms: _612  and  _613
REMARK  237  A    between atoms: _618  and  _620
REMARK  238  A    between atoms: _620  and  _621
REMARK  239  A    between atoms: _624  and  _626
REMARK  240  A    between atoms: _626  and  _627
REMARK  241  A    between atoms: _626  and  _629
REMARK  242  A    between atoms: _629  and  _630
REMARK  243  A    between atoms: _630  and  _631
REMARK  244  A    between atoms: _631  and  _632
REMARK  245  A    between atoms: _641  and  _643
REMARK  246  A    between atoms: _643  and  _644
REMARK  247  A    between atoms: _643  and  _646
REMARK  248  A    between atoms: _646  and  _647
REMARK  249  A    between atoms: _650  and  _652
REMARK  250  A    between atoms: _652  and  _653
REMARK  251  A    between atoms: _652  and  _655
REMARK  252  A    between atoms: _655  and  _656
REMARK  253  A    between atoms: _659  and  _661
REMARK  254  A    between atoms: _661  and  _662
REMARK  255  A    between atoms: _661  and  _664
REMARK  256  A    between atoms: _664  and  _665
REMARK                            x       y       z     vdW  Elec       q    Type
REMARK                         _______ _______ _______ _____ _____    ______ ____
ROOT
ATOM      1  C   VAL A   4       2.210  20.391   9.128  0.00  0.00    +0.244 C 
ATOM      2  N   PRO A   5       1.641  21.573   9.181  0.00  0.00    -0.272 N 
ATOM      3  CD  PRO A   5       1.149  22.255  10.362  0.00  0.00    +0.094 C 
ATOM      4  CG  PRO A   5       0.048  23.166   9.765  0.00  0.00    +0.024 C 
ATOM      5  CB  PRO A   5       0.606  23.626   8.417  0.00  0.00    +0.031 C 
ATOM      6  CA  PRO A   5       1.313  22.339   7.961  0.00  0.00    +0.152 C 
ATOM      7  O   VAL A   4       2.558  19.886   8.034  0.00  0.00    -0.273 OA
ENDROOT
BRANCH   6   8
ATOM      8  C   PRO A   5       2.581  22.653   7.177  0.00  0.00    +0.241 C 
ATOM      9  N   GLU A   6       3.652  22.951   7.919  0.00  0.00    -0.297 N 
ATOM     10  H   GLU A   6       3.584  22.956   8.957  0.00  0.00    +0.150 HD
ATOM     11  O   PRO A   5       2.664  22.567   5.944  0.00  0.00    -0.273 OA
BRANCH   9  12
ATOM     12  CA  GLU A   6       4.923  23.271   7.262  0.00  0.00    +0.149 C 
BRANCH  12  13
ATOM     13  C   GLU A   6       5.497  22.047   6.558  0.00  0.00    +0.241 C 
ATOM     14  N   SER A   7       5.441  20.925   7.293  0.00  0.00    -0.295 N 
ATOM     15  H   SER A   7       4.994  20.933   8.232  0.00  0.00    +0.150 HD
ATOM     16  O   GLU A   6       5.969  22.100   5.426  0.00  0.00    -0.273 OA
BRANCH  14  17
ATOM     17  CA  SER A   7       6.017  19.687   6.756  0.00  0.00    +0.178 C 
BRANCH  17  18
ATOM     18  C   SER A   7       5.203  19.167   5.597  0.00  0.00    +0.243 C 
ATOM     19  N   ASN A   8       3.904  19.465   5.575  0.00  0.00    -0.298 N 
ATOM     20  H   ASN A   8       3.491  20.030   6.345  0.00  0.00    +0.150 HD
ATOM     21  O   SER A   7       5.743  18.511   4.712  0.00  0.00    -0.273 OA
BRANCH  19  22
ATOM     22  CA  ASN A   8       3.055  19.004   4.477  0.00  0.00    +0.146 C 
BRANCH  22  23
ATOM     23  C   ASN A   8       3.536  19.587   3.147  0.00  0.00    +0.227 C 
ATOM     24  O   ASN A   8       3.577  18.909   2.116  0.00  0.00    -0.286 OA
ENDBRANCH  22  23
BRANCH  22  25
ATOM     25  CB  ASN A   8       1.595  19.473   4.697  0.00  0.00    +0.112 C 
BRANCH  25  26
ATOM     26  CG  ASN A   8       0.830  18.607   5.703  0.00  0.00    +0.222 C 
ATOM     27  ND2 ASN A   8      -0.273  19.182   6.176  0.00  0.00    -0.329 N 
ATOM     28 HD21 ASN A   8      -0.885  18.666   6.840  0.00  0.00    +0.145 HD
ATOM     29 HD22 ASN A   8      -0.523  20.148   5.882  0.00  0.00    +0.145 HD
ATOM     30  OD1 ASN A   8       1.193  17.489   5.994  0.00  0.00    -0.275 OA
ENDBRANCH  25  26
ENDBRANCH  22  25
ENDBRANCH  19  22
ENDBRANCH  17  18
BRANCH  17  31
ATOM     31  CB  SER A   7       6.082  18.623   7.868  0.00  0.00    +0.166 C 
BRANCH  31  32
ATOM     32  OG  SER A   7       6.930  19.145   8.880  0.00  0.00    -0.380 OA
ATOM     33  H   SER A   7       6.550  19.992   9.223  0.00  0.00    +0.211 HD
ENDBRANCH  31  32
ENDBRANCH  17  31
ENDBRANCH  14  17
ENDBRANCH  12  13
BRANCH  12  34
ATOM     34  CB  GLU A   6       5.944  23.772   8.301  0.00  0.00    +0.041 C 
BRANCH  34  35
ATOM     35  CG  GLU A   6       5.625  25.138   8.857  0.00  0.00    +0.116 C 
BRANCH  35  36
ATOM     36  CD  GLU A   6       4.446  25.174   9.810  0.00  0.00    +0.365 C 
ATOM     37  OE2 GLU A   6       4.108  24.129  10.386  0.00  0.00    -0.246 OA
ATOM     38  OE1 GLU A   6       3.833  26.237  10.016  0.00  0.00    -0.246 OA
ENDBRANCH  35  36
ENDBRANCH  34  35
ENDBRANCH  12  34
ENDBRANCH   9  12
ENDBRANCH   6   8
BRANCH   1  39
ATOM     39  CA  VAL A   4       2.527  19.647  10.408  0.00  0.00    +0.149 C 
BRANCH  39  41
ATOM     40  C   GLY A   3       4.377  21.029  11.203  0.00  0.00    +0.243 C 
ATOM     41  N   VAL A   4       3.175  20.483  11.417  0.00  0.00    -0.297 N 
ATOM     42  H   VAL A   4       2.691  20.657  12.321  0.00  0.00    +0.150 HD
ATOM     43  O   GLY A   3       5.004  20.793  10.164  0.00  0.00    -0.273 OA
BRANCH  40  44
ATOM     44  CA  GLY A   3       4.858  21.896  12.361  0.00  0.00    +0.176 C 
BRANCH  44  47
ATOM     45  C   GLU A   2       7.168  21.943  13.050  0.00  0.00    +0.241 C 
ATOM     46  O   GLU A   2       6.996  21.020  13.873  0.00  0.00    -0.273 OA
ATOM     47  N   GLY A   3       6.233  22.411  12.227  0.00  0.00    -0.295 N 
ATOM     48  H   GLY A   3       6.467  23.123  11.506  0.00  0.00    +0.150 HD
BRANCH  45  49
ATOM     49  CA  GLU A   2       8.533  22.580  13.028  0.00  0.00    +0.149 C 
BRANCH  49  51
ATOM     50  C   ILE A   1       9.840  23.833  11.477  0.00  0.00    +0.238 C 
ATOM     51  N   GLU A   2       8.642  23.685  12.062  0.00  0.00    -0.297 N 
ATOM     52  H   GLU A   2       7.841  24.312  11.846  0.00  0.00    +0.150 HD
ATOM     53  O   ILE A   1      10.807  23.119  11.735  0.00  0.00    -0.274 OA
BRANCH  50  54
ATOM     54  CA  ILE A   1       9.919  24.933  10.432  0.00  0.00    +0.145 C 
BRANCH  54  55
ATOM     55  CB  ILE A   1       9.342  24.382   9.116  0.00  0.00    +0.025 C 
ATOM     56  CG2 ILE A   1       9.263  25.509   8.060  0.00  0.00    +0.002 C 
BRANCH  55  57
ATOM     57  CG1 ILE A   1      10.221  23.227   8.595  0.00  0.00    +0.002 C 
ATOM     58  CD1 ILE A   1       9.477  22.475   7.482  0.00  0.00    +0.000 C 
ENDBRANCH  55  57
ENDBRANCH  54  55
BRANCH  54  59
ATOM     59  N   ILE A   1      11.287  25.418  10.236  0.00  0.00    -0.238 NA
ATOM     60  H   ILE A   1      12.022  24.764   9.898  0.00  0.00    +0.142 HD
ENDBRANCH  54  59
ENDBRANCH  50  54
ENDBRANCH  49  51
BRANCH  49  61
ATOM     61  CB  GLU A   2       8.920  23.118  14.415  0.00  0.00    +0.041 C 
BRANCH  61  62
ATOM     62  CG  GLU A   2       7.855  24.009  15.047  0.00  0.00    +0.116 C 
BRANCH  62  63
ATOM     63  CD  GLU A   2       8.473  24.953  16.062  0.00  0.00    +0.365 C 
ATOM     64  OE2 GLU A   2       8.710  24.458  17.180  0.00  0.00    -0.246 OA
ATOM     65  OE1 GLU A   2       8.751  26.128  15.728  0.00  0.00    -0.246 OA
ENDBRANCH  62  63
ENDBRANCH  61  62
ENDBRANCH  49  61
ENDBRANCH  45  49
ENDBRANCH  44  47
ENDBRANCH  40  44
ENDBRANCH  39  41
BRANCH  39  66
ATOM     66  CB  VAL A   4       1.298  18.929  10.991  0.00  0.00    +0.027 C 
ATOM     67  CG2 VAL A   4       1.815  17.918  12.072  0.00  0.00    +0.002 C 
ATOM     68  CG1 VAL A   4       0.516  18.144   9.945  0.00  0.00    +0.002 C 
ENDBRANCH  39  66
ENDBRANCH   1  39
TORSDOF 28
REMARK  Name = ../refined-set-2016/1b6h/1b6h_pocket.pdb
REMARK  256 active torsions:
REMARK  status: ('A' for Active; 'I' for Inactive)
REMARK    1  A    between atoms: _1  and  _3
REMARK    2  A    between atoms: _3  and  _4
REMARK    3  A    between atoms: _3  and  _6
REMARK    4  A    between atoms: _6  and  _7
REMARK    5  A    between atoms: _12  and  _14
REMARK    6  A    between atoms: _14  and  _15
REMARK    7  A    between atoms: _17  and  _19
REMARK    8  A    between atoms: _19  and  _20
REMARK    9  A    between atoms: _19  and  _22
REMARK   10  A    between atoms: _22  and  _23
REMARK   11  A    between atoms: _23  and  _24
REMARK   12  A    between atoms: _29  and  _31
REMARK   13  A    between atoms: _31  and  _32
REMARK   14  A    between atoms: _31  and  _34
REMARK   15  A    between atoms: _34  and  _35
REMARK   16  A    between atoms: _38  and  _40
REMARK   17  A    between atoms: _40  and  _41
REMARK   18  A    between atoms: _40  and  _43
REMARK   19  A    between atoms: _43  and  _44
REMARK   20  A    between atoms: _44  and  _45
REMARK   21  A    between atoms: _48  and  _50
REMARK   22  A    between atoms: _50  and  _51
REMARK   23  A    between atoms: _53  and  _55
REMARK   24  A    between atoms: _55  and  _56
REMARK   25  A    between atoms: _55  and  _58
REMARK   26  A    between atoms: _62  and  _63
REMARK   27  A    between atoms: _68  and  _70
REMARK   28  A    between atoms: _70  and  _71
REMARK   29  A    between atoms: _70  and  _73
REMARK   30  A    between atoms: _73  and  _74
REMARK   31  A    between atoms: _74  and  _75
REMARK   32  A    between atoms: _78  and  _80
REMARK   33  A    between atoms: _80  and  _81
REMARK   34  A    between atoms: _80  and  _83
REMARK   35  A    between atoms: _83  and  _84
REMARK   36  A    between atoms: _86  and  _88
REMARK   37  A    between atoms: _88  and  _89
REMARK   38  A    between atoms: _88  and  _91
REMARK   39  A    between atoms: _91  and  _92
REMARK   40  A    between atoms: _97  and  _99
REMARK   41  A    between atoms: _99  and  _100
REMARK   42  A    between atoms: _99  and  _102
REMARK   43  A    between atoms: _102  and  _103
REMARK   44  A    between atoms: _103  and  _104
REMARK   45  A    between atoms: _104  and  _105
REMARK   46  A    between atoms: _115  and  _116
REMARK   47  A    between atoms: _121  and  _123
REMARK   48  A    between atoms: _123  and  _124
REMARK   49  A    between atoms: _123  and  _126
REMARK   50  A    between atoms: _126  and  _127
REMARK   51  A    between atoms: _132  and  _133
REMARK   52  A    between atoms: _135  and  _137
REMARK   53  A    between atoms: _137  and  _138
REMARK   54  A    between atoms: _137  and  _140
REMARK   55  A    between atoms: _140  and  _141
REMARK   56  A    between atoms: _146  and  _147
REMARK   57  A    between atoms: _149  and  _151
REMARK   58  A    between atoms: _151  and  _152
REMARK   59  A    between atoms: _151  and  _154
REMARK   60  A    between atoms: _157  and  _159
REMARK   61  A    between atoms: _159  and  _160
REMARK   62  A    between atoms: _159  and  _162
REMARK   63  A    between atoms: _162  and  _163
REMARK   64  A    between atoms: _169  and  _170
REMARK   65  A    between atoms: _175  and  _177
REMARK   66  A    between atoms: _177  and  _178
REMARK   67  A    between atoms: _177  and  _180
REMARK   68  A    between atoms: _180  and  _181
REMARK   69  A    between atoms: _183  and  _185
REMARK   70  A    between atoms: _185  and  _186
REMARK   71  A    between atoms: _185  and  _188
REMARK   72  A    between atoms: _188  and  _189
REMARK   73  A    between atoms: _189  and  _190
REMARK   74  A    between atoms: _193  and  _195
REMARK   75  A    between atoms: _195  and  _196
REMARK   76  A    between atoms: _195  and  _198
REMARK   77  A    between atoms: _198  and  _199
REMARK   78  A    between atoms: _204  and  _205
REMARK   79  A    between atoms: _207  and  _209
REMARK   80  A    between atoms: _209  and  _210
REMARK   81  A    between atoms: _209  and  _212
REMARK   82  A    between atoms: _212  and  _213
REMARK   83  A    between atoms: _218  and  _220
REMARK   84  A    between atoms: _220  and  _221
REMARK   85  A    between atoms: _220  and  _223
REMARK   86  A    between atoms: _223  and  _224
REMARK   87  A    between atoms: _229  and  _231
REMARK   88  A    between atoms: _231  and  _232
REMARK   89  A    between atoms: _231  and  _234
REMARK   90  A    between atoms: _234  and  _235
REMARK   91  A    between atoms: _235  and  _236
REMARK   92  A    between atoms: _238  and  _240
REMARK   93  A    between atoms: _240  and  _241
REMARK   94  A    between atoms: _240  and  _243
REMARK   95  A    between atoms: _243  and  _244
REMARK   96  A    between atoms: _249  and  _250
REMARK   97  A    between atoms: _252  and  _254
REMARK   98  A    between atoms: _254  and  _255
REMARK   99  A    between atoms: _254  and  _257
REMARK  100  A    between atoms: _257  and  _258
REMARK  101  A    between atoms: _261  and  _263
REMARK  102  A    between atoms: _263  and  _264
REMARK  103  A    between atoms: _263  and  _266
REMARK  104  A    between atoms: _266  and  _267
REMARK  105  A    between atoms: _267  and  _484
REMARK  106  A    between atoms: _268  and  _270
REMARK  107  A    between atoms: _270  and  _271
REMARK  108  A    between atoms: _270  and  _273
REMARK  109  A    between atoms: _273  and  _274
REMARK  110  A    between atoms: _277  and  _279
REMARK  111  A    between atoms: _279  and  _280
REMARK  112  A    between atoms: _279  and  _282
REMARK  113  A    between atoms: _282  and  _283
REMARK  114  A    between atoms: _288  and  _289
REMARK  115  A    between atoms: _291  and  _293
REMARK  116  A    between atoms: _293  and  _294
REMARK  117  A    between atoms: _293  and  _296
REMARK  118  A    between atoms: _296  and  _297
REMARK  119  A    between atoms: _302  and  _303
REMARK  120  A    between atoms: _305  and  _307
REMARK  121  A    between atoms: _307  and  _308
REMARK  122  A    between atoms: _307  and  _310
REMARK  123  A    between atoms: _310  and  _311
REMARK  124  A    between atoms: _311  and  _312
REMARK  125  A    between atoms: _315  and  _317
REMARK  126  A    between atoms: _317  and  _318
REMARK  127  A    between atoms: _317  and  _320
REMARK  128  A    between atoms: _320  and  _321
REMARK  129  A    between atoms: _326  and  _327
REMARK  130  A    between atoms: _329  and  _331
REMARK  131  A    between atoms: _331  and  _332
REMARK  132  A    between atoms: _331  and  _334
REMARK  133  A    between atoms: _334  and  _335
REMARK  134  A    between atoms: _340  and  _342
REMARK  135  A    between atoms: _342  and  _343
REMARK  136  A    between atoms: _342  and  _345
REMARK  137  A    between atoms: _345  and  _346
REMARK  138  A    between atoms: _349  and  _351
REMARK  139  A    between atoms: _351  and  _352
REMARK  140  A    between atoms: _351  and  _354
REMARK  141  A    between atoms: _354  and  _355
REMARK  142  A    between atoms: _360  and  _362
REMARK  143  A    between atoms: _362  and  _363
REMARK  144  A    between atoms: _362  and  _365
REMARK  145  A    between atoms: _365  and  _366
REMARK  146  A    between atoms: _376  and  _378
REMARK  147  A    between atoms: _378  and  _379
REMARK  148  A    between atoms: _378  and  _381
REMARK  149  A    between atoms: _381  and  _382
REMARK  150  A    between atoms: _388  and  _390
REMARK  151  A    between atoms: _390  and  _391
REMARK  152  A    between atoms: _390  and  _393
REMARK  153  A    between atoms: _393  and  _394
REMARK  154  A    between atoms: _397  and  _399
REMARK  155  A    between atoms: _399  and  _400
REMARK  156  A    between atoms: _399  and  _402
REMARK  157  A    between atoms: _402  and  _403
REMARK  158  A    between atoms: _406  and  _408
REMARK  159  A    between atoms: _408  and  _409
REMARK  160  A    between atoms: _408  and  _411
REMARK  161  A    between atoms: _411  and  _412
REMARK  162  A    between atoms: _412  and  _413
REMARK  163  A    between atoms: _413  and  _414
REMARK  164  A    between atoms: _423  and  _425
REMARK  165  A    between atoms: _425  and  _426
REMARK  166  A    between atoms: _425  and  _428
REMARK  167  A    between atoms: _428  and  _429
REMARK  168  A    between atoms: _434  and  _436
REMARK  169  A    between atoms: _436  and  _437
REMARK  170  A    between atoms: _436  and  _439
REMARK  171  A    between atoms: _439  and  _440
REMARK  172  A    between atoms: _441  and  _442
REMARK  173  A    between atoms: _451  and  _453
REMARK  174  A    between atoms: _453  and  _454
REMARK  175  A    between atoms: _457  and  _459
REMARK  176  A    between atoms: _459  and  _460
REMARK  177  A    between atoms: _462  and  _464
REMARK  178  A    between atoms: _464  and  _465
REMARK  179  A    between atoms: _464  and  _467
REMARK  180  A    between atoms: _467  and  _468
REMARK  181  A    between atoms: _478  and  _480
REMARK  182  A    between atoms: _480  and  _481
REMARK  183  A    between atoms: _480  and  _483
REMARK  184  A    between atoms: _483  and  _484
REMARK  185  A    between atoms: _485  and  _487
REMARK  186  A    between atoms: _487  and  _488
REMARK  187  A    between atoms: _491  and  _493
REMARK  188  A    between atoms: _493  and  _494
REMARK  189  A    between atoms: _493  and  _496
REMARK  190  A    between atoms: _496  and  _497
REMARK  191  A    between atoms: _500  and  _502
REMARK  192  A    between atoms: _502  and  _503
REMARK  193  A    between atoms: _502  and  _505
REMARK  194  A    between atoms: _505  and  _506
REMARK  195  A    between atoms: _511  and  _512
REMARK  196  A    between atoms: _514  and  _516
REMARK  197  A    between atoms: _516  and  _517
REMARK  198  A    between atoms: _516  and  _519
REMARK  199  A    between atoms: _519  and  _520
REMARK  200  A    between atoms: _522  and  _524
REMARK  201  A    between atoms: _524  and  _525
REMARK  202  A    between atoms: _524  and  _527
REMARK  203  A    between atoms: _527  and  _528
REMARK  204  A    between atoms: _534  and  _536
REMARK  205  A    between atoms: _536  and  _537
REMARK  206  A    between atoms: _536  and  _539
REMARK  207  A    between atoms: _539  and  _540
REMARK  208  A    between atoms: _543  and  _545
REMARK  209  A    between atoms: _545  and  _546
REMARK  210  A    between atoms: _545  and  _548
REMARK  211  A    between atoms: _548  and  _549
REMARK  212  A    between atoms: _551  and  _553
REMARK  213  A    between atoms: _553  and  _554
REMARK  214  A    between atoms: _553  and  _556
REMARK  215  A    between atoms: _556  and  _557
REMARK  216  A    between atoms: _562  and  _564
REMARK  217  A    between atoms: _564  and  _565
REMARK  218  A    between atoms: _564  and  _567
REMARK  219  A    between atoms: _567  and  _568
REMARK  220  A    between atoms: _571  and  _573
REMARK  221  A    between atoms: _573  and  _574
REMARK  222  A    between atoms: _573  and  _576
REMARK  223  A    between atoms: _576  and  _577
REMARK  224  A    between atoms: _582  and  _583
REMARK  225  A    between atoms: _585  and  _587
REMARK  226  A    between atoms: _587  and  _588
REMARK  227  A    between atoms: _587  and  _590
REMARK  228  A    between atoms: _590  and  _591
REMARK  229  A    between atoms: _596  and  _597
REMARK  230  A    between atoms: _599  and  _601
REMARK  231  A    between atoms: _601  and  _602
REMARK  232  A    between atoms: _601  and  _604
REMARK  233  A    between atoms: _607  and  _609
REMARK  234  A    between atoms: _609  and  _610
REMARK  235  A    between atoms: _609  and  _612
REMARK  236  A    between atoms: _612  and  _613
REMARK  237  A    between atoms: _618  and  _620
REMARK  238  A    between atoms: _620  and  _621
REMARK  239  A    between atoms: _624  and  _626
REMARK  240  A    between atoms: _626  and  _627
REMARK  241  A    between atoms: _626  and  _629
REMARK  242  A    between atoms: _629  and  _630
REMARK  243  A    between atoms: _630  and  _631
REMARK  244  A    between atoms: _631  and  _632
REMARK  245  A    between atoms: _641  and  _643
REMARK  246  A    between atoms: _643  and  _644
REMARK  247  A    between atoms: _643  and  _646
REMARK  248  A    between atoms: _646  and  _647
REMARK  249  A    between atoms: _650  and  _652
REMARK  250  A    between atoms: _652  and  _653
REMARK  251  A    between atoms: _652  and  _655
REMARK  252  A    between atoms: _655  and  _656
REMARK  253  A    between atoms: _659  and  _661
REMARK  254  A    between atoms: _661  and  _662
REMARK  255  A    between atoms: _661  and  _664
REMARK  256  A    between atoms: _664  and  _665
REMARK                            x       y       z     vdW  Elec       q    Type
REMARK                         _______ _______ _______ _____ _____    ______ ____
ROOT
ATOM      1  NE  ARG A   1       4.804  14.590   4.016  0.00  0.00    -0.265 N 
ATOM      2  CZ  ARG A   1       4.248  15.268   5.017  0.00  0.00    +0.342 C 
ATOM      3  NH2 ARG A   1       4.953  15.665   6.071  0.00  0.00    -0.292 N 
ATOM      4 HH21 ARG A   1       4.490  16.193   6.838  0.00  0.00    +0.255 HD
ATOM      5 HH22 ARG A   1       5.968  15.447   6.129  0.00  0.00    +0.255 HD
ATOM      6  NH1 ARG A   1       2.934  15.533   5.002  0.00  0.00    -0.292 N 
ATOM      7 HH11 ARG A   1       2.501  16.063   5.785  0.00  0.00    +0.255 HD
ATOM      8 HH12 ARG A   1       2.347  15.209   4.207  0.00  0.00    +0.255 HD
ATOM      9  HE  ARG A   1       4.173  14.264   3.256  0.00  0.00    +0.259 HD
ENDROOT
BRANCH   1  10
ATOM     10  CD  ARG A   1       6.228  14.262   3.890  0.00  0.00    +0.174 C 
BRANCH  10  11
ATOM     11  CG  ARG A   1       7.013  15.545   3.512  0.00  0.00    +0.045 C 
BRANCH  11  12
ATOM     12  CB  ARG A   1       6.649  15.995   2.100  0.00  0.00    +0.029 C 
BRANCH  12  13
ATOM     13  CA  ARG A   1       7.593  17.066   1.507  0.00  0.00    +0.133 C 
BRANCH  13  14
ATOM     14  N   ARG A   1       7.397  18.346   2.189  0.00  0.00    -0.239 NA
ATOM     15  H   ARG A   1       6.631  18.456   2.884  0.00  0.00    +0.142 HD
ENDBRANCH  13  14
BRANCH  13  16
ATOM     16  C   ARG A   1       7.432  17.162  -0.013  0.00  0.00    +0.224 C 
ATOM     17  O   ARG A   1       8.013  16.314  -0.706  0.00  0.00    -0.287 OA
ENDBRANCH  13  16
ENDBRANCH  12  13
ENDBRANCH  11  12
ENDBRANCH  10  11
ENDBRANCH   1  10
TORSDOF 6
REMARK  Name = ../refined-set-2016/1b6h/1b6h_pocket.pdb
REMARK  256 active torsions:
REMARK  status: ('A' for Active; 'I' for Inactive)
REMARK    1  A    between atoms: _1  and  _3
REMARK    2  A    between atoms: _3  and  _4
REMARK    3  A    between atoms: _3  and  _6
REMARK    4  A    between atoms: _6  and  _7
REMARK    5  A    between atoms: _12  and  _14
REMARK    6  A    between atoms: _14  and  _15
REMARK    7  A    between atoms: _17  and  _19
REMARK    8  A    between atoms: _19  and  _20
REMARK    9  A    between atoms: _19  and  _22
REMARK   10  A    between atoms: _22  and  _23
REMARK   11  A    between atoms: _23  and  _24
REMARK   12  A    between atoms: _29  and  _31
REMARK   13  A    between atoms: _31  and  _32
REMARK   14  A    between atoms: _31  and  _34
REMARK   15  A    between atoms: _34  and  _35
REMARK   16  A    between atoms: _38  and  _40
REMARK   17  A    between atoms: _40  and  _41
REMARK   18  A    between atoms: _40  and  _43
REMARK   19  A    between atoms: _43  and  _44
REMARK   20  A    between atoms: _44  and  _45
REMARK   21  A    between atoms: _48  and  _50
REMARK   22  A    between atoms: _50  and  _51
REMARK   23  A    between atoms: _53  and  _55
REMARK   24  A    between atoms: _55  and  _56
REMARK   25  A    between atoms: _55  and  _58
REMARK   26  A    between atoms: _62  and  _63
REMARK   27  A    between atoms: _68  and  _70
REMARK   28  A    between atoms: _70  and  _71
REMARK   29  A    between atoms: _70  and  _73
REMARK   30  A    between atoms: _73  and  _74
REMARK   31  A    between atoms: _74  and  _75
REMARK   32  A    between atoms: _78  and  _80
REMARK   33  A    between atoms: _80  and  _81
REMARK   34  A    between atoms: _80  and  _83
REMARK   35  A    between atoms: _83  and  _84
REMARK   36  A    between atoms: _86  and  _88
REMARK   37  A    between atoms: _88  and  _89
REMARK   38  A    between atoms: _88  and  _91
REMARK   39  A    between atoms: _91  and  _92
REMARK   40  A    between atoms: _97  and  _99
REMARK   41  A    between atoms: _99  and  _100
REMARK   42  A    between atoms: _99  and  _102
REMARK   43  A    between atoms: _102  and  _103
REMARK   44  A    between atoms: _103  and  _104
REMARK   45  A    between atoms: _104  and  _105
REMARK   46  A    between atoms: _115  and  _116
REMARK   47  A    between atoms: _121  and  _123
REMARK   48  A    between atoms: _123  and  _124
REMARK   49  A    between atoms: _123  and  _126
REMARK   50  A    between atoms: _126  and  _127
REMARK   51  A    between atoms: _132  and  _133
REMARK   52  A    between atoms: _135  and  _137
REMARK   53  A    between atoms: _137  and  _138
REMARK   54  A    between atoms: _137  and  _140
REMARK   55  A    between atoms: _140  and  _141
REMARK   56  A    between atoms: _146  and  _147
REMARK   57  A    between atoms: _149  and  _151
REMARK   58  A    between atoms: _151  and  _152
REMARK   59  A    between atoms: _151  and  _154
REMARK   60  A    between atoms: _157  and  _159
REMARK   61  A    between atoms: _159  and  _160
REMARK   62  A    between atoms: _159  and  _162
REMARK   63  A    between atoms: _162  and  _163
REMARK   64  A    between atoms: _169  and  _170
REMARK   65  A    between atoms: _175  and  _177
REMARK   66  A    between atoms: _177  and  _178
REMARK   67  A    between atoms: _177  and  _180
REMARK   68  A    between atoms: _180  and  _181
REMARK   69  A    between atoms: _183  and  _185
REMARK   70  A    between atoms: _185  and  _186
REMARK   71  A    between atoms: _185  and  _188
REMARK   72  A    between atoms: _188  and  _189
REMARK   73  A    between atoms: _189  and  _190
REMARK   74  A    between atoms: _193  and  _195
REMARK   75  A    between atoms: _195  and  _196
REMARK   76  A    between atoms: _195  and  _198
REMARK   77  A    between atoms: _198  and  _199
REMARK   78  A    between atoms: _204  and  _205
REMARK   79  A    between atoms: _207  and  _209
REMARK   80  A    between atoms: _209  and  _210
REMARK   81  A    between atoms: _209  and  _212
REMARK   82  A    between atoms: _212  and  _213
REMARK   83  A    between atoms: _218  and  _220
REMARK   84  A    between atoms: _220  and  _221
REMARK   85  A    between atoms: _220  and  _223
REMARK   86  A    between atoms: _223  and  _224
REMARK   87  A    between atoms: _229  and  _231
REMARK   88  A    between atoms: _231  and  _232
REMARK   89  A    between atoms: _231  and  _234
REMARK   90  A    between atoms: _234  and  _235
REMARK   91  A    between atoms: _235  and  _236
REMARK   92  A    between atoms: _238  and  _240
REMARK   93  A    between atoms: _240  and  _241
REMARK   94  A    between atoms: _240  and  _243
REMARK   95  A    between atoms: _243  and  _244
REMARK   96  A    between atoms: _249  and  _250
REMARK   97  A    between atoms: _252  and  _254
REMARK   98  A    between atoms: _254  and  _255
REMARK   99  A    between atoms: _254  and  _257
REMARK  100  A    between atoms: _257  and  _258
REMARK  101  A    between atoms: _261  and  _263
REMARK  102  A    between atoms: _263  and  _264
REMARK  103  A    between atoms: _263  and  _266
REMARK  104  A    between atoms: _266  and  _267
REMARK  105  A    between atoms: _267  and  _484
REMARK  106  A    between atoms: _268  and  _270
REMARK  107  A    between atoms: _270  and  _271
REMARK  108  A    between atoms: _270  and  _273
REMARK  109  A    between atoms: _273  and  _274
REMARK  110  A    between atoms: _277  and  _279
REMARK  111  A    between atoms: _279  and  _280
REMARK  112  A    between atoms: _279  and  _282
REMARK  113  A    between atoms: _282  and  _283
REMARK  114  A    between atoms: _288  and  _289
REMARK  115  A    between atoms: _291  and  _293
REMARK  116  A    between atoms: _293  and  _294
REMARK  117  A    between atoms: _293  and  _296
REMARK  118  A    between atoms: _296  and  _297
REMARK  119  A    between atoms: _302  and  _303
REMARK  120  A    between atoms: _305  and  _307
REMARK  121  A    between atoms: _307  and  _308
REMARK  122  A    between atoms: _307  and  _310
REMARK  123  A    between atoms: _310  and  _311
REMARK  124  A    between atoms: _311  and  _312
REMARK  125  A    between atoms: _315  and  _317
REMARK  126  A    between atoms: _317  and  _318
REMARK  127  A    between atoms: _317  and  _320
REMARK  128  A    between atoms: _320  and  _321
REMARK  129  A    between atoms: _326  and  _327
REMARK  130  A    between atoms: _329  and  _331
REMARK  131  A    between atoms: _331  and  _332
REMARK  132  A    between atoms: _331  and  _334
REMARK  133  A    between atoms: _334  and  _335
REMARK  134  A    between atoms: _340  and  _342
REMARK  135  A    between atoms: _342  and  _343
REMARK  136  A    between atoms: _342  and  _345
REMARK  137  A    between atoms: _345  and  _346
REMARK  138  A    between atoms: _349  and  _351
REMARK  139  A    between atoms: _351  and  _352
REMARK  140  A    between atoms: _351  and  _354
REMARK  141  A    between atoms: _354  and  _355
REMARK  142  A    between atoms: _360  and  _362
REMARK  143  A    between atoms: _362  and  _363
REMARK  144  A    between atoms: _362  and  _365
REMARK  145  A    between atoms: _365  and  _366
REMARK  146  A    between atoms: _376  and  _378
REMARK  147  A    between atoms: _378  and  _379
REMARK  148  A    between atoms: _378  and  _381
REMARK  149  A    between atoms: _381  and  _382
REMARK  150  A    between atoms: _388  and  _390
REMARK  151  A    between atoms: _390  and  _391
REMARK  152  A    between atoms: _390  and  _393
REMARK  153  A    between atoms: _393  and  _394
REMARK  154  A    between atoms: _397  and  _399
REMARK  155  A    between atoms: _399  and  _400
REMARK  156  A    between atoms: _399  and  _402
REMARK  157  A    between atoms: _402  and  _403
REMARK  158  A    between atoms: _406  and  _408
REMARK  159  A    between atoms: _408  and  _409
REMARK  160  A    between atoms: _408  and  _411
REMARK  161  A    between atoms: _411  and  _412
REMARK  162  A    between atoms: _412  and  _413
REMARK  163  A    between atoms: _413  and  _414
REMARK  164  A    between atoms: _423  and  _425
REMARK  165  A    between atoms: _425  and  _426
REMARK  166  A    between atoms: _425  and  _428
REMARK  167  A    between atoms: _428  and  _429
REMARK  168  A    between atoms: _434  and  _436
REMARK  169  A    between atoms: _436  and  _437
REMARK  170  A    between atoms: _436  and  _439
REMARK  171  A    between atoms: _439  and  _440
REMARK  172  A    between atoms: _441  and  _442
REMARK  173  A    between atoms: _451  and  _453
REMARK  174  A    between atoms: _453  and  _454
REMARK  175  A    between atoms: _457  and  _459
REMARK  176  A    between atoms: _459  and  _460
REMARK  177  A    between atoms: _462  and  _464
REMARK  178  A    between atoms: _464  and  _465
REMARK  179  A    between atoms: _464  and  _467
REMARK  180  A    between atoms: _467  and  _468
REMARK  181  A    between atoms: _478  and  _480
REMARK  182  A    between atoms: _480  and  _481
REMARK  183  A    between atoms: _480  and  _483
REMARK  184  A    between atoms: _483  and  _484
REMARK  185  A    between atoms: _485  and  _487
REMARK  186  A    between atoms: _487  and  _488
REMARK  187  A    between atoms: _491  and  _493
REMARK  188  A    between atoms: _493  and  _494
REMARK  189  A    between atoms: _493  and  _496
REMARK  190  A    between atoms: _496  and  _497
REMARK  191  A    between atoms: _500  and  _502
REMARK  192  A    between atoms: _502  and  _503
REMARK  193  A    between atoms: _502  and  _505
REMARK  194  A    between atoms: _505  and  _506
REMARK  195  A    between atoms: _511  and  _512
REMARK  196  A    between atoms: _514  and  _516
REMARK  197  A    between atoms: _516  and  _517
REMARK  198  A    between atoms: _516  and  _519
REMARK  199  A    between atoms: _519  and  _520
REMARK  200  A    between atoms: _522  and  _524
REMARK  201  A    between atoms: _524  and  _525
REMARK  202  A    between atoms: _524  and  _527
REMARK  203  A    between atoms: _527  and  _528
REMARK  204  A    between atoms: _534  and  _536
REMARK  205  A    between atoms: _536  and  _537
REMARK  206  A    between atoms: _536  and  _539
REMARK  207  A    between atoms: _539  and  _540
REMARK  208  A    between atoms: _543  and  _545
REMARK  209  A    between atoms: _545  and  _546
REMARK  210  A    between atoms: _545  and  _548
REMARK  211  A    between atoms: _548  and  _549
REMARK  212  A    between atoms: _551  and  _553
REMARK  213  A    between atoms: _553  and  _554
REMARK  214  A    between atoms: _553  and  _556
REMARK  215  A    between atoms: _556  and  _557
REMARK  216  A    between atoms: _562  and  _564
REMARK  217  A    between atoms: _564  and  _565
REMARK  218  A    between atoms: _564  and  _567
REMARK  219  A    between atoms: _567  and  _568
REMARK  220  A    between atoms: _571  and  _573
REMARK  221  A    between atoms: _573  and  _574
REMARK  222  A    between atoms: _573  and  _576
REMARK  223  A    between atoms: _576  and  _577
REMARK  224  A    between atoms: _582  and  _583
REMARK  225  A    between atoms: _585  and  _587
REMARK  226  A    between atoms: _587  and  _588
REMARK  227  A    between atoms: _587  and  _590
REMARK  228  A    between atoms: _590  and  _591
REMARK  229  A    between atoms: _596  and  _597
REMARK  230  A    between atoms: _599  and  _601
REMARK  231  A    between atoms: _601  and  _602
REMARK  232  A    between atoms: _601  and  _604
REMARK  233  A    between atoms: _607  and  _609
REMARK  234  A    between atoms: _609  and  _610
REMARK  235  A    between atoms: _609  and  _612
REMARK  236  A    between atoms: _612  and  _613
REMARK  237  A    between atoms: _618  and  _620
REMARK  238  A    between atoms: _620  and  _621
REMARK  239  A    between atoms: _624  and  _626
REMARK  240  A    between atoms: _626  and  _627
REMARK  241  A    between atoms: _626  and  _629
REMARK  242  A    between atoms: _629  and  _630
REMARK  243  A    between atoms: _630  and  _631
REMARK  244  A    between atoms: _631  and  _632
REMARK  245  A    between atoms: _641  and  _643
REMARK  246  A    between atoms: _643  and  _644
REMARK  247  A    between atoms: _643  and  _646
REMARK  248  A    between atoms: _646  and  _647
REMARK  249  A    between atoms: _650  and  _652
REMARK  250  A    between atoms: _652  and  _653
REMARK  251  A    between atoms: _652  and  _655
REMARK  252  A    between atoms: _655  and  _656
REMARK  253  A    between atoms: _659  and  _661
REMARK  254  A    between atoms: _661  and  _662
REMARK  255  A    between atoms: _661  and  _664
REMARK  256  A    between atoms: _664  and  _665
REMARK                            x       y       z     vdW  Elec       q    Type
REMARK                         _______ _______ _______ _____ _____    ______ ____
ROOT
ATOM      1  CA  TYR A   2      14.896  21.407  14.895  0.00  0.00    +0.141 C 
ENDROOT
BRANCH   1   4
ATOM      2  C   PRO A   1      13.941  23.300  16.150  0.00  0.00    +0.239 C 
ATOM      3  O   PRO A   1      13.658  22.577  17.123  0.00  0.00    -0.274 OA
ATOM      4  N   TYR A   2      14.489  22.779  15.035  0.00  0.00    -0.298 N 
ATOM      5  H   TYR A   2      14.627  23.411  14.221  0.00  0.00    +0.150 HD
BRANCH   2   7
ATOM      6  N   PRO A   1      14.333  25.439  15.070  0.00  0.00    -0.210 NA
ATOM      7  CA  PRO A   1      13.583  24.774  16.132  0.00  0.00    +0.149 C 
ATOM      8  CB  PRO A   1      12.087  24.962  15.772  0.00  0.00    +0.028 C 
ATOM      9  CG  PRO A   1      12.161  25.149  14.256  0.00  0.00    +0.021 C 
ATOM     10  CD  PRO A   1      13.457  25.960  14.025  0.00  0.00    +0.089 C 
ENDBRANCH   2   7
ENDBRANCH   1   4
BRANCH   1  11
ATOM     11  C   TYR A   2      16.409  21.207  14.902  0.00  0.00    +0.227 C 
ATOM     12  O   TYR A   2      16.920  20.155  14.530  0.00  0.00    -0.286 OA
ENDBRANCH   1  11
BRANCH   1  13
ATOM     13  CB  TYR A   2      14.272  20.742  13.673  0.00  0.00    +0.054 C 
BRANCH  13  14
ATOM     14  CG  TYR A   2      12.987  19.987  13.949  0.00  0.00    -0.020 A 
ATOM     15  CD2 TYR A   2      13.057  18.709  14.478  0.00  0.00    -0.001 A 
ATOM     16  CE2 TYR A   2      11.909  17.970  14.731  0.00  0.00    +0.036 A 
ATOM     17  CZ  TYR A   2      10.678  18.517  14.474  0.00  0.00    +0.134 A 
ATOM     18  CE1 TYR A   2      10.573  19.797  13.985  0.00  0.00    +0.036 A 
ATOM     19  CD1 TYR A   2      11.733  20.543  13.730  0.00  0.00    -0.001 A 
BRANCH  17  20
ATOM     20  OH  TYR A   2       9.557  17.738  14.702  0.00  0.00    -0.506 OA
ATOM     21  HH  TYR A   2       9.600  16.926  14.137  0.00  0.00    +0.292 HD
ENDBRANCH  17  20
ENDBRANCH  13  14
ENDBRANCH   1  13
TORSDOF 6
REMARK  Name = ../refined-set-2016/1b6h/1b6h_pocket.pdb
REMARK  256 active torsions:
REMARK  status: ('A' for Active; 'I' for Inactive)
REMARK    1  A    between atoms: _1  and  _3
REMARK    2  A    between atoms: _3  and  _4
REMARK    3  A    between atoms: _3  and  _6
REMARK    4  A    between atoms: _6  and  _7
REMARK    5  A    between atoms: _12  and  _14
REMARK    6  A    between atoms: _14  and  _15
REMARK    7  A    between atoms: _17  and  _19
REMARK    8  A    between atoms: _19  and  _20
REMARK    9  A    between atoms: _19  and  _22
REMARK   10  A    between atoms: _22  and  _23
REMARK   11  A    between atoms: _23  and  _24
REMARK   12  A    between atoms: _29  and  _31
REMARK   13  A    between atoms: _31  and  _32
REMARK   14  A    between atoms: _31  and  _34
REMARK   15  A    between atoms: _34  and  _35
REMARK   16  A    between atoms: _38  and  _40
REMARK   17  A    between atoms: _40  and  _41
REMARK   18  A    between atoms: _40  and  _43
REMARK   19  A    between atoms: _43  and  _44
REMARK   20  A    between atoms: _44  and  _45
REMARK   21  A    between atoms: _48  and  _50
REMARK   22  A    between atoms: _50  and  _51
REMARK   23  A    between atoms: _53  and  _55
REMARK   24  A    between atoms: _55  and  _56
REMARK   25  A    between atoms: _55  and  _58
REMARK   26  A    between atoms: _62  and  _63
REMARK   27  A    between atoms: _68  and  _70
REMARK   28  A    between atoms: _70  and  _71
REMARK   29  A    between atoms: _70  and  _73
REMARK   30  A    between atoms: _73  and  _74
REMARK   31  A    between atoms: _74  and  _75
REMARK   32  A    between atoms: _78  and  _80
REMARK   33  A    between atoms: _80  and  _81
REMARK   34  A    between atoms: _80  and  _83
REMARK   35  A    between atoms: _83  and  _84
REMARK   36  A    between atoms: _86  and  _88
REMARK   37  A    between atoms: _88  and  _89
REMARK   38  A    between atoms: _88  and  _91
REMARK   39  A    between atoms: _91  and  _92
REMARK   40  A    between atoms: _97  and  _99
REMARK   41  A    between atoms: _99  and  _100
REMARK   42  A    between atoms: _99  and  _102
REMARK   43  A    between atoms: _102  and  _103
REMARK   44  A    between atoms: _103  and  _104
REMARK   45  A    between atoms: _104  and  _105
REMARK   46  A    between atoms: _115  and  _116
REMARK   47  A    between atoms: _121  and  _123
REMARK   48  A    between atoms: _123  and  _124
REMARK   49  A    between atoms: _123  and  _126
REMARK   50  A    between atoms: _126  and  _127
REMARK   51  A    between atoms: _132  and  _133
REMARK   52  A    between atoms: _135  and  _137
REMARK   53  A    between atoms: _137  and  _138
REMARK   54  A    between atoms: _137  and  _140
REMARK   55  A    between atoms: _140  and  _141
REMARK   56  A    between atoms: _146  and  _147
REMARK   57  A    between atoms: _149  and  _151
REMARK   58  A    between atoms: _151  and  _152
REMARK   59  A    between atoms: _151  and  _154
REMARK   60  A    between atoms: _157  and  _159
REMARK   61  A    between atoms: _159  and  _160
REMARK   62  A    between atoms: _159  and  _162
REMARK   63  A    between atoms: _162  and  _163
REMARK   64  A    between atoms: _169  and  _170
REMARK   65  A    between atoms: _175  and  _177
REMARK   66  A    between atoms: _177  and  _178
REMARK   67  A    between atoms: _177  and  _180
REMARK   68  A    between atoms: _180  and  _181
REMARK   69  A    between atoms: _183  and  _185
REMARK   70  A    between atoms: _185  and  _186
REMARK   71  A    between atoms: _185  and  _188
REMARK   72  A    between atoms: _188  and  _189
REMARK   73  A    between atoms: _189  and  _190
REMARK   74  A    between atoms: _193  and  _195
REMARK   75  A    between atoms: _195  and  _196
REMARK   76  A    between atoms: _195  and  _198
REMARK   77  A    between atoms: _198  and  _199
REMARK   78  A    between atoms: _204  and  _205
REMARK   79  A    between atoms: _207  and  _209
REMARK   80  A    between atoms: _209  and  _210
REMARK   81  A    between atoms: _209  and  _212
REMARK   82  A    between atoms: _212  and  _213
REMARK   83  A    between atoms: _218  and  _220
REMARK   84  A    between atoms: _220  and  _221
REMARK   85  A    between atoms: _220  and  _223
REMARK   86  A    between atoms: _223  and  _224
REMARK   87  A    between atoms: _229  and  _231
REMARK   88  A    between atoms: _231  and  _232
REMARK   89  A    between atoms: _231  and  _234
REMARK   90  A    between atoms: _234  and  _235
REMARK   91  A    between atoms: _235  and  _236
REMARK   92  A    between atoms: _238  and  _240
REMARK   93  A    between atoms: _240  and  _241
REMARK   94  A    between atoms: _240  and  _243
REMARK   95  A    between atoms: _243  and  _244
REMARK   96  A    between atoms: _249  and  _250
REMARK   97  A    between atoms: _252  and  _254
REMARK   98  A    between atoms: _254  and  _255
REMARK   99  A    between atoms: _254  and  _257
REMARK  100  A    between atoms: _257  and  _258
REMARK  101  A    between atoms: _261  and  _263
REMARK  102  A    between atoms: _263  and  _264
REMARK  103  A    between atoms: _263  and  _266
REMARK  104  A    between atoms: _266  and  _267
REMARK  105  A    between atoms: _267  and  _484
REMARK  106  A    between atoms: _268  and  _270
REMARK  107  A    between atoms: _270  and  _271
REMARK  108  A    between atoms: _270  and  _273
REMARK  109  A    between atoms: _273  and  _274
REMARK  110  A    between atoms: _277  and  _279
REMARK  111  A    between atoms: _279  and  _280
REMARK  112  A    between atoms: _279  and  _282
REMARK  113  A    between atoms: _282  and  _283
REMARK  114  A    between atoms: _288  and  _289
REMARK  115  A    between atoms: _291  and  _293
REMARK  116  A    between atoms: _293  and  _294
REMARK  117  A    between atoms: _293  and  _296
REMARK  118  A    between atoms: _296  and  _297
REMARK  119  A    between atoms: _302  and  _303
REMARK  120  A    between atoms: _305  and  _307
REMARK  121  A    between atoms: _307  and  _308
REMARK  122  A    between atoms: _307  and  _310
REMARK  123  A    between atoms: _310  and  _311
REMARK  124  A    between atoms: _311  and  _312
REMARK  125  A    between atoms: _315  and  _317
REMARK  126  A    between atoms: _317  and  _318
REMARK  127  A    between atoms: _317  and  _320
REMARK  128  A    between atoms: _320  and  _321
REMARK  129  A    between atoms: _326  and  _327
REMARK  130  A    between atoms: _329  and  _331
REMARK  131  A    between atoms: _331  and  _332
REMARK  132  A    between atoms: _331  and  _334
REMARK  133  A    between atoms: _334  and  _335
REMARK  134  A    between atoms: _340  and  _342
REMARK  135  A    between atoms: _342  and  _343
REMARK  136  A    between atoms: _342  and  _345
REMARK  137  A    between atoms: _345  and  _346
REMARK  138  A    between atoms: _349  and  _351
REMARK  139  A    between atoms: _351  and  _352
REMARK  140  A    between atoms: _351  and  _354
REMARK  141  A    between atoms: _354  and  _355
REMARK  142  A    between atoms: _360  and  _362
REMARK  143  A    between atoms: _362  and  _363
REMARK  144  A    between atoms: _362  and  _365
REMARK  145  A    between atoms: _365  and  _366
REMARK  146  A    between atoms: _376  and  _378
REMARK  147  A    between atoms: _378  and  _379
REMARK  148  A    between atoms: _378  and  _381
REMARK  149  A    between atoms: _381  and  _382
REMARK  150  A    between atoms: _388  and  _390
REMARK  151  A    between atoms: _390  and  _391
REMARK  152  A    between atoms: _390  and  _393
REMARK  153  A    between atoms: _393  and  _394
REMARK  154  A    between atoms: _397  and  _399
REMARK  155  A    between atoms: _399  and  _400
REMARK  156  A    between atoms: _399  and  _402
REMARK  157  A    between atoms: _402  and  _403
REMARK  158  A    between atoms: _406  and  _408
REMARK  159  A    between atoms: _408  and  _409
REMARK  160  A    between atoms: _408  and  _411
REMARK  161  A    between atoms: _411  and  _412
REMARK  162  A    between atoms: _412  and  _413
REMARK  163  A    between atoms: _413  and  _414
REMARK  164  A    between atoms: _423  and  _425
REMARK  165  A    between atoms: _425  and  _426
REMARK  166  A    between atoms: _425  and  _428
REMARK  167  A    between atoms: _428  and  _429
REMARK  168  A    between atoms: _434  and  _436
REMARK  169  A    between atoms: _436  and  _437
REMARK  170  A    between atoms: _436  and  _439
REMARK  171  A    between atoms: _439  and  _440
REMARK  172  A    between atoms: _441  and  _442
REMARK  173  A    between atoms: _451  and  _453
REMARK  174  A    between atoms: _453  and  _454
REMARK  175  A    between atoms: _457  and  _459
REMARK  176  A    between atoms: _459  and  _460
REMARK  177  A    between atoms: _462  and  _464
REMARK  178  A    between atoms: _464  and  _465
REMARK  179  A    between atoms: _464  and  _467
REMARK  180  A    between atoms: _467  and  _468
REMARK  181  A    between atoms: _478  and  _480
REMARK  182  A    between atoms: _480  and  _481
REMARK  183  A    between atoms: _480  and  _483
REMARK  184  A    between atoms: _483  and  _484
REMARK  185  A    between atoms: _485  and  _487
REMARK  186  A    between atoms: _487  and  _488
REMARK  187  A    between atoms: _491  and  _493
REMARK  188  A    between atoms: _493  and  _494
REMARK  189  A    between atoms: _493  and  _496
REMARK  190  A    between atoms: _496  and  _497
REMARK  191  A    between atoms: _500  and  _502
REMARK  192  A    between atoms: _502  and  _503
REMARK  193  A    between atoms: _502  and  _505
REMARK  194  A    between atoms: _505  and  _506
REMARK  195  A    between atoms: _511  and  _512
REMARK  196  A    between atoms: _514  and  _516
REMARK  197  A    between atoms: _516  and  _517
REMARK  198  A    between atoms: _516  and  _519
REMARK  199  A    between atoms: _519  and  _520
REMARK  200  A    between atoms: _522  and  _524
REMARK  201  A    between atoms: _524  and  _525
REMARK  202  A    between atoms: _524  and  _527
REMARK  203  A    between atoms: _527  and  _528
REMARK  204  A    between atoms: _534  and  _536
REMARK  205  A    between atoms: _536  and  _537
REMARK  206  A    between atoms: _536  and  _539
REMARK  207  A    between atoms: _539  and  _540
REMARK  208  A    between atoms: _543  and  _545
REMARK  209  A    between atoms: _545  and  _546
REMARK  210  A    between atoms: _545  and  _548
REMARK  211  A    between atoms: _548  and  _549
REMARK  212  A    between atoms: _551  and  _553
REMARK  213  A    between atoms: _553  and  _554
REMARK  214  A    between atoms: _553  and  _556
REMARK  215  A    between atoms: _556  and  _557
REMARK  216  A    between atoms: _562  and  _564
REMARK  217  A    between atoms: _564  and  _565
REMARK  218  A    between atoms: _564  and  _567
REMARK  219  A    between atoms: _567  and  _568
REMARK  220  A    between atoms: _571  and  _573
REMARK  221  A    between atoms: _573  and  _574
REMARK  222  A    between atoms: _573  and  _576
REMARK  223  A    between atoms: _576  and  _577
REMARK  224  A    between atoms: _582  and  _583
REMARK  225  A    between atoms: _585  and  _587
REMARK  226  A    between atoms: _587  and  _588
REMARK  227  A    between atoms: _587  and  _590
REMARK  228  A    between atoms: _590  and  _591
REMARK  229  A    between atoms: _596  and  _597
REMARK  230  A    between atoms: _599  and  _601
REMARK  231  A    between atoms: _601  and  _602
REMARK  232  A    between atoms: _601  and  _604
REMARK  233  A    between atoms: _607  and  _609
REMARK  234  A    between atoms: _609  and  _610
REMARK  235  A    between atoms: _609  and  _612
REMARK  236  A    between atoms: _612  and  _613
REMARK  237  A    between atoms: _618  and  _620
REMARK  238  A    between atoms: _620  and  _621
REMARK  239  A    between atoms: _624  and  _626
REMARK  240  A    between atoms: _626  and  _627
REMARK  241  A    between atoms: _626  and  _629
REMARK  242  A    between atoms: _629  and  _630
REMARK  243  A    between atoms: _630  and  _631
REMARK  244  A    between atoms: _631  and  _632
REMARK  245  A    between atoms: _641  and  _643
REMARK  246  A    between atoms: _643  and  _644
REMARK  247  A    between atoms: _643  and  _646
REMARK  248  A    between atoms: _646  and  _647
REMARK  249  A    between atoms: _650  and  _652
REMARK  250  A    between atoms: _652  and  _653
REMARK  251  A    between atoms: _652  and  _655
REMARK  252  A    between atoms: _655  and  _656
REMARK  253  A    between atoms: _659  and  _661
REMARK  254  A    between atoms: _661  and  _662
REMARK  255  A    between atoms: _661  and  _664
REMARK  256  A    between atoms: _664  and  _665
REMARK                            x       y       z     vdW  Elec       q    Type
REMARK                         _______ _______ _______ _____ _____    ______ ____
ROOT
ATOM      1  CG  TYR A   1      15.728  15.809  13.630  0.00  0.00    -0.020 A 
ATOM      2  CD2 TYR A   1      14.610  15.360  14.327  0.00  0.00    -0.001 A 
ATOM      3  CE2 TYR A   1      13.822  14.342  13.831  0.00  0.00    +0.036 A 
ATOM      4  CZ  TYR A   1      14.165  13.747  12.620  0.00  0.00    +0.134 A 
ATOM      5  CE1 TYR A   1      15.283  14.158  11.929  0.00  0.00    +0.036 A 
ATOM      6  CD1 TYR A   1      16.067  15.193  12.431  0.00  0.00    -0.001 A 
ENDROOT
BRANCH   4   7
ATOM      7  OH  TYR A   1      13.366  12.736  12.156  0.00  0.00    -0.506 OA
ATOM      8  HH  TYR A   1      13.899  11.906  12.076  0.00  0.00    +0.292 HD
ENDBRANCH   4   7
BRANCH   1   9
ATOM      9  CB  TYR A   1      16.561  16.960  14.175  0.00  0.00    +0.051 C 
BRANCH   9  10
ATOM     10  CA  TYR A   1      17.216  16.623  15.519  0.00  0.00    +0.137 C 
BRANCH  10  11
ATOM     11  N   TYR A   1      17.426  17.858  16.269  0.00  0.00    -0.239 NA
ATOM     12  H   TYR A   1      17.129  18.767  15.861  0.00  0.00    +0.142 HD
ENDBRANCH  10  11
BRANCH  10  13
ATOM     13  C   TYR A   1      18.568  15.932  15.299  0.00  0.00    +0.224 C 
ATOM     14  O   TYR A   1      18.608  14.705  15.274  0.00  0.00    -0.287 OA
ENDBRANCH  10  13
ENDBRANCH   9  10
ENDBRANCH   1   9
TORSDOF 5
REMARK  Name = ../refined-set-2016/1b6h/1b6h_pocket.pdb
REMARK  256 active torsions:
REMARK  status: ('A' for Active; 'I' for Inactive)
REMARK    1  A    between atoms: _1  and  _3
REMARK    2  A    between atoms: _3  and  _4
REMARK    3  A    between atoms: _3  and  _6
REMARK    4  A    between atoms: _6  and  _7
REMARK    5  A    between atoms: _12  and  _14
REMARK    6  A    between atoms: _14  and  _15
REMARK    7  A    between atoms: _17  and  _19
REMARK    8  A    between atoms: _19  and  _20
REMARK    9  A    between atoms: _19  and  _22
REMARK   10  A    between atoms: _22  and  _23
REMARK   11  A    between atoms: _23  and  _24
REMARK   12  A    between atoms: _29  and  _31
REMARK   13  A    between atoms: _31  and  _32
REMARK   14  A    between atoms: _31  and  _34
REMARK   15  A    between atoms: _34  and  _35
REMARK   16  A    between atoms: _38  and  _40
REMARK   17  A    between atoms: _40  and  _41
REMARK   18  A    between atoms: _40  and  _43
REMARK   19  A    between atoms: _43  and  _44
REMARK   20  A    between atoms: _44  and  _45
REMARK   21  A    between atoms: _48  and  _50
REMARK   22  A    between atoms: _50  and  _51
REMARK   23  A    between atoms: _53  and  _55
REMARK   24  A    between atoms: _55  and  _56
REMARK   25  A    between atoms: _55  and  _58
REMARK   26  A    between atoms: _62  and  _63
REMARK   27  A    between atoms: _68  and  _70
REMARK   28  A    between atoms: _70  and  _71
REMARK   29  A    between atoms: _70  and  _73
REMARK   30  A    between atoms: _73  and  _74
REMARK   31  A    between atoms: _74  and  _75
REMARK   32  A    between atoms: _78  and  _80
REMARK   33  A    between atoms: _80  and  _81
REMARK   34  A    between atoms: _80  and  _83
REMARK   35  A    between atoms: _83  and  _84
REMARK   36  A    between atoms: _86  and  _88
REMARK   37  A    between atoms: _88  and  _89
REMARK   38  A    between atoms: _88  and  _91
REMARK   39  A    between atoms: _91  and  _92
REMARK   40  A    between atoms: _97  and  _99
REMARK   41  A    between atoms: _99  and  _100
REMARK   42  A    between atoms: _99  and  _102
REMARK   43  A    between atoms: _102  and  _103
REMARK   44  A    between atoms: _103  and  _104
REMARK   45  A    between atoms: _104  and  _105
REMARK   46  A    between atoms: _115  and  _116
REMARK   47  A    between atoms: _121  and  _123
REMARK   48  A    between atoms: _123  and  _124
REMARK   49  A    between atoms: _123  and  _126
REMARK   50  A    between atoms: _126  and  _127
REMARK   51  A    between atoms: _132  and  _133
REMARK   52  A    between atoms: _135  and  _137
REMARK   53  A    between atoms: _137  and  _138
REMARK   54  A    between atoms: _137  and  _140
REMARK   55  A    between atoms: _140  and  _141
REMARK   56  A    between atoms: _146  and  _147
REMARK   57  A    between atoms: _149  and  _151
REMARK   58  A    between atoms: _151  and  _152
REMARK   59  A    between atoms: _151  and  _154
REMARK   60  A    between atoms: _157  and  _159
REMARK   61  A    between atoms: _159  and  _160
REMARK   62  A    between atoms: _159  and  _162
REMARK   63  A    between atoms: _162  and  _163
REMARK   64  A    between atoms: _169  and  _170
REMARK   65  A    between atoms: _175  and  _177
REMARK   66  A    between atoms: _177  and  _178
REMARK   67  A    between atoms: _177  and  _180
REMARK   68  A    between atoms: _180  and  _181
REMARK   69  A    between atoms: _183  and  _185
REMARK   70  A    between atoms: _185  and  _186
REMARK   71  A    between atoms: _185  and  _188
REMARK   72  A    between atoms: _188  and  _189
REMARK   73  A    between atoms: _189  and  _190
REMARK   74  A    between atoms: _193  and  _195
REMARK   75  A    between atoms: _195  and  _196
REMARK   76  A    between atoms: _195  and  _198
REMARK   77  A    between atoms: _198  and  _199
REMARK   78  A    between atoms: _204  and  _205
REMARK   79  A    between atoms: _207  and  _209
REMARK   80  A    between atoms: _209  and  _210
REMARK   81  A    between atoms: _209  and  _212
REMARK   82  A    between atoms: _212  and  _213
REMARK   83  A    between atoms: _218  and  _220
REMARK   84  A    between atoms: _220  and  _221
REMARK   85  A    between atoms: _220  and  _223
REMARK   86  A    between atoms: _223  and  _224
REMARK   87  A    between atoms: _229  and  _231
REMARK   88  A    between atoms: _231  and  _232
REMARK   89  A    between atoms: _231  and  _234
REMARK   90  A    between atoms: _234  and  _235
REMARK   91  A    between atoms: _235  and  _236
REMARK   92  A    between atoms: _238  and  _240
REMARK   93  A    between atoms: _240  and  _241
REMARK   94  A    between atoms: _240  and  _243
REMARK   95  A    between atoms: _243  and  _244
REMARK   96  A    between atoms: _249  and  _250
REMARK   97  A    between atoms: _252  and  _254
REMARK   98  A    between atoms: _254  and  _255
REMARK   99  A    between atoms: _254  and  _257
REMARK  100  A    between atoms: _257  and  _258
REMARK  101  A    between atoms: _261  and  _263
REMARK  102  A    between atoms: _263  and  _264
REMARK  103  A    between atoms: _263  and  _266
REMARK  104  A    between atoms: _266  and  _267
REMARK  105  A    between atoms: _267  and  _484
REMARK  106  A    between atoms: _268  and  _270
REMARK  107  A    between atoms: _270  and  _271
REMARK  108  A    between atoms: _270  and  _273
REMARK  109  A    between atoms: _273  and  _274
REMARK  110  A    between atoms: _277  and  _279
REMARK  111  A    between atoms: _279  and  _280
REMARK  112  A    between atoms: _279  and  _282
REMARK  113  A    between atoms: _282  and  _283
REMARK  114  A    between atoms: _288  and  _289
REMARK  115  A    between atoms: _291  and  _293
REMARK  116  A    between atoms: _293  and  _294
REMARK  117  A    between atoms: _293  and  _296
REMARK  118  A    between atoms: _296  and  _297
REMARK  119  A    between atoms: _302  and  _303
REMARK  120  A    between atoms: _305  and  _307
REMARK  121  A    between atoms: _307  and  _308
REMARK  122  A    between atoms: _307  and  _310
REMARK  123  A    between atoms: _310  and  _311
REMARK  124  A    between atoms: _311  and  _312
REMARK  125  A    between atoms: _315  and  _317
REMARK  126  A    between atoms: _317  and  _318
REMARK  127  A    between atoms: _317  and  _320
REMARK  128  A    between atoms: _320  and  _321
REMARK  129  A    between atoms: _326  and  _327
REMARK  130  A    between atoms: _329  and  _331
REMARK  131  A    between atoms: _331  and  _332
REMARK  132  A    between atoms: _331  and  _334
REMARK  133  A    between atoms: _334  and  _335
REMARK  134  A    between atoms: _340  and  _342
REMARK  135  A    between atoms: _342  and  _343
REMARK  136  A    between atoms: _342  and  _345
REMARK  137  A    between atoms: _345  and  _346
REMARK  138  A    between atoms: _349  and  _351
REMARK  139  A    between atoms: _351  and  _352
REMARK  140  A    between atoms: _351  and  _354
REMARK  141  A    between atoms: _354  and  _355
REMARK  142  A    between atoms: _360  and  _362
REMARK  143  A    between atoms: _362  and  _363
REMARK  144  A    between atoms: _362  and  _365
REMARK  145  A    between atoms: _365  and  _366
REMARK  146  A    between atoms: _376  and  _378
REMARK  147  A    between atoms: _378  and  _379
REMARK  148  A    between atoms: _378  and  _381
REMARK  149  A    between atoms: _381  and  _382
REMARK  150  A    between atoms: _388  and  _390
REMARK  151  A    between atoms: _390  and  _391
REMARK  152  A    between atoms: _390  and  _393
REMARK  153  A    between atoms: _393  and  _394
REMARK  154  A    between atoms: _397  and  _399
REMARK  155  A    between atoms: _399  and  _400
REMARK  156  A    between atoms: _399  and  _402
REMARK  157  A    between atoms: _402  and  _403
REMARK  158  A    between atoms: _406  and  _408
REMARK  159  A    between atoms: _408  and  _409
REMARK  160  A    between atoms: _408  and  _411
REMARK  161  A    between atoms: _411  and  _412
REMARK  162  A    between atoms: _412  and  _413
REMARK  163  A    between atoms: _413  and  _414
REMARK  164  A    between atoms: _423  and  _425
REMARK  165  A    between atoms: _425  and  _426
REMARK  166  A    between atoms: _425  and  _428
REMARK  167  A    between atoms: _428  and  _429
REMARK  168  A    between atoms: _434  and  _436
REMARK  169  A    between atoms: _436  and  _437
REMARK  170  A    between atoms: _436  and  _439
REMARK  171  A    between atoms: _439  and  _440
REMARK  172  A    between atoms: _441  and  _442
REMARK  173  A    between atoms: _451  and  _453
REMARK  174  A    between atoms: _453  and  _454
REMARK  175  A    between atoms: _457  and  _459
REMARK  176  A    between atoms: _459  and  _460
REMARK  177  A    between atoms: _462  and  _464
REMARK  178  A    between atoms: _464  and  _465
REMARK  179  A    between atoms: _464  and  _467
REMARK  180  A    between atoms: _467  and  _468
REMARK  181  A    between atoms: _478  and  _480
REMARK  182  A    between atoms: _480  and  _481
REMARK  183  A    between atoms: _480  and  _483
REMARK  184  A    between atoms: _483  and  _484
REMARK  185  A    between atoms: _485  and  _487
REMARK  186  A    between atoms: _487  and  _488
REMARK  187  A    between atoms: _491  and  _493
REMARK  188  A    between atoms: _493  and  _494
REMARK  189  A    between atoms: _493  and  _496
REMARK  190  A    between atoms: _496  and  _497
REMARK  191  A    between atoms: _500  and  _502
REMARK  192  A    between atoms: _502  and  _503
REMARK  193  A    between atoms: _502  and  _505
REMARK  194  A    between atoms: _505  and  _506
REMARK  195  A    between atoms: _511  and  _512
REMARK  196  A    between atoms: _514  and  _516
REMARK  197  A    between atoms: _516  and  _517
REMARK  198  A    between atoms: _516  and  _519
REMARK  199  A    between atoms: _519  and  _520
REMARK  200  A    between atoms: _522  and  _524
REMARK  201  A    between atoms: _524  and  _525
REMARK  202  A    between atoms: _524  and  _527
REMARK  203  A    between atoms: _527  and  _528
REMARK  204  A    between atoms: _534  and  _536
REMARK  205  A    between atoms: _536  and  _537
REMARK  206  A    between atoms: _536  and  _539
REMARK  207  A    between atoms: _539  and  _540
REMARK  208  A    between atoms: _543  and  _545
REMARK  209  A    between atoms: _545  and  _546
REMARK  210  A    between atoms: _545  and  _548
REMARK  211  A    between atoms: _548  and  _549
REMARK  212  A    between atoms: _551  and  _553
REMARK  213  A    between atoms: _553  and  _554
REMARK  214  A    between atoms: _553  and  _556
REMARK  215  A    between atoms: _556  and  _557
REMARK  216  A    between atoms: _562  and  _564
REMARK  217  A    between atoms: _564  and  _565
REMARK  218  A    between atoms: _564  and  _567
REMARK  219  A    between atoms: _567  and  _568
REMARK  220  A    between atoms: _571  and  _573
REMARK  221  A    between atoms: _573  and  _574
REMARK  222  A    between atoms: _573  and  _576
REMARK  223  A    between atoms: _576  and  _577
REMARK  224  A    between atoms: _582  and  _583
REMARK  225  A    between atoms: _585  and  _587
REMARK  226  A    between atoms: _587  and  _588
REMARK  227  A    between atoms: _587  and  _590
REMARK  228  A    between atoms: _590  and  _591
REMARK  229  A    between atoms: _596  and  _597
REMARK  230  A    between atoms: _599  and  _601
REMARK  231  A    between atoms: _601  and  _602
REMARK  232  A    between atoms: _601  and  _604
REMARK  233  A    between atoms: _607  and  _609
REMARK  234  A    between atoms: _609  and  _610
REMARK  235  A    between atoms: _609  and  _612
REMARK  236  A    between atoms: _612  and  _613
REMARK  237  A    between atoms: _618  and  _620
REMARK  238  A    between atoms: _620  and  _621
REMARK  239  A    between atoms: _624  and  _626
REMARK  240  A    between atoms: _626  and  _627
REMARK  241  A    between atoms: _626  and  _629
REMARK  242  A    between atoms: _629  and  _630
REMARK  243  A    between atoms: _630  and  _631
REMARK  244  A    between atoms: _631  and  _632
REMARK  245  A    between atoms: _641  and  _643
REMARK  246  A    between atoms: _643  and  _644
REMARK  247  A    between atoms: _643  and  _646
REMARK  248  A    between atoms: _646  and  _647
REMARK  249  A    between atoms: _650  and  _652
REMARK  250  A    between atoms: _652  and  _653
REMARK  251  A    between atoms: _652  and  _655
REMARK  252  A    between atoms: _655  and  _656
REMARK  253  A    between atoms: _659  and  _661
REMARK  254  A    between atoms: _661  and  _662
REMARK  255  A    between atoms: _661  and  _664
REMARK  256  A    between atoms: _664  and  _665
REMARK                            x       y       z     vdW  Elec       q    Type
REMARK                         _______ _______ _______ _____ _____    ______ ____
ROOT
ATOM      1  CA  HIS A   2      11.996  14.667   8.217  0.00  0.00    +0.155 C 
ENDROOT
BRANCH   1   2
ATOM      2  C   HIS A   2      12.510  15.886   7.511  0.00  0.00    +0.244 C 
ATOM      3  N   PRO A   3      11.726  16.942   7.387  0.00  0.00    -0.272 N 
ATOM      4  CD  PRO A   3      10.341  17.049   7.884  0.00  0.00    +0.094 C 
ATOM      5  CG  PRO A   3       9.788  18.181   7.004  0.00  0.00    +0.024 C 
ATOM      6  CB  PRO A   3      10.947  19.147   6.864  0.00  0.00    +0.031 C 
ATOM      7  CA  PRO A   3      12.093  18.135   6.646  0.00  0.00    +0.152 C 
ATOM      8  O   HIS A   2      13.641  15.874   7.018  0.00  0.00    -0.273 OA
BRANCH   7   9
ATOM      9  C   PRO A   3      13.408  18.764   7.097  0.00  0.00    +0.241 C 
ATOM     10  N   SER A   4      13.716  18.704   8.399  0.00  0.00    -0.296 N 
ATOM     11  H   SER A   4      13.097  18.195   9.062  0.00  0.00    +0.150 HD
ATOM     12  O   PRO A   3      14.154  19.317   6.276  0.00  0.00    -0.273 OA
BRANCH  10  13
ATOM     13  CA  SER A   4      14.935  19.363   8.881  0.00  0.00    +0.166 C 
BRANCH  13  14
ATOM     14  C   SER A   4      16.197  18.785   8.265  0.00  0.00    +0.229 C 
ATOM     15  O   SER A   4      17.207  19.486   8.211  0.00  0.00    -0.286 OA
ENDBRANCH  13  14
BRANCH  13  16
ATOM     16  CB  SER A   4      14.990  19.327  10.418  0.00  0.00    +0.165 C 
BRANCH  16  17
ATOM     17  OG  SER A   4      15.150  17.997  10.880  0.00  0.00    -0.380 OA
ATOM     18  H   SER A   4      14.386  17.448  10.573  0.00  0.00    +0.211 HD
ENDBRANCH  16  17
ENDBRANCH  13  16
ENDBRANCH  10  13
ENDBRANCH   7   9
ENDBRANCH   1   2
BRANCH   1  20
ATOM     19  C   VAL A   1      12.023  12.860   6.522  0.00  0.00    +0.238 C 
ATOM     20  N   HIS A   2      12.503  13.422   7.627  0.00  0.00    -0.297 N 
ATOM     21  H   HIS A   2      13.293  12.946   8.107  0.00  0.00    +0.150 HD
ATOM     22  O   VAL A   1      11.231  13.510   5.823  0.00  0.00    -0.274 OA
BRANCH  19  23
ATOM     23  CA  VAL A   1      12.511  11.480   6.107  0.00  0.00    +0.145 C 
BRANCH  23  24
ATOM     24  CB  VAL A   1      11.345  10.460   6.210  0.00  0.00    +0.025 C 
ATOM     25  CG2 VAL A   1      10.909  10.239   7.643  0.00  0.00    +0.002 C 
ATOM     26  CG1 VAL A   1      11.805   9.122   5.621  0.00  0.00    +0.002 C 
ENDBRANCH  23  24
BRANCH  23  27
ATOM     27  N   VAL A   1      13.598  10.961   6.935  0.00  0.00    -0.238 NA
ATOM     28  H   VAL A   1      13.396  10.328   7.735  0.00  0.00    +0.142 HD
ENDBRANCH  23  27
ENDBRANCH  19  23
ENDBRANCH   1  20
BRANCH   1  29
ATOM     29  CB  HIS A   2      12.497  14.679   9.676  0.00  0.00    +0.076 C 
BRANCH  29  30
ATOM     30  CG  HIS A   2      11.810  15.744  10.482  0.00  0.00    +0.082 A 
ATOM     31  CD2 HIS A   2      10.571  15.781  11.027  0.00  0.00    +0.115 A 
ATOM     32  NE2 HIS A   2      10.450  17.005  11.655  0.00  0.00    -0.221 NA
ATOM     33  CE1 HIS A   2      11.573  17.686  11.449  0.00  0.00    +0.199 A 
ATOM     34  ND1 HIS A   2      12.430  16.949  10.745  0.00  0.00    -0.227 NA
ENDBRANCH  29  30
ENDBRANCH   1  29
TORSDOF 12
REMARK  Name = ../refined-set-2016/1b6h/1b6h_pocket.pdb
REMARK  256 active torsions:
REMARK  status: ('A' for Active; 'I' for Inactive)
REMARK    1  A    between atoms: _1  and  _3
REMARK    2  A    between atoms: _3  and  _4
REMARK    3  A    between atoms: _3  and  _6
REMARK    4  A    between atoms: _6  and  _7
REMARK    5  A    between atoms: _12  and  _14
REMARK    6  A    between atoms: _14  and  _15
REMARK    7  A    between atoms: _17  and  _19
REMARK    8  A    between atoms: _19  and  _20
REMARK    9  A    between atoms: _19  and  _22
REMARK   10  A    between atoms: _22  and  _23
REMARK   11  A    between atoms: _23  and  _24
REMARK   12  A    between atoms: _29  and  _31
REMARK   13  A    between atoms: _31  and  _32
REMARK   14  A    between atoms: _31  and  _34
REMARK   15  A    between atoms: _34  and  _35
REMARK   16  A    between atoms: _38  and  _40
REMARK   17  A    between atoms: _40  and  _41
REMARK   18  A    between atoms: _40  and  _43
REMARK   19  A    between atoms: _43  and  _44
REMARK   20  A    between atoms: _44  and  _45
REMARK   21  A    between atoms: _48  and  _50
REMARK   22  A    between atoms: _50  and  _51
REMARK   23  A    between atoms: _53  and  _55
REMARK   24  A    between atoms: _55  and  _56
REMARK   25  A    between atoms: _55  and  _58
REMARK   26  A    between atoms: _62  and  _63
REMARK   27  A    between atoms: _68  and  _70
REMARK   28  A    between atoms: _70  and  _71
REMARK   29  A    between atoms: _70  and  _73
REMARK   30  A    between atoms: _73  and  _74
REMARK   31  A    between atoms: _74  and  _75
REMARK   32  A    between atoms: _78  and  _80
REMARK   33  A    between atoms: _80  and  _81
REMARK   34  A    between atoms: _80  and  _83
REMARK   35  A    between atoms: _83  and  _84
REMARK   36  A    between atoms: _86  and  _88
REMARK   37  A    between atoms: _88  and  _89
REMARK   38  A    between atoms: _88  and  _91
REMARK   39  A    between atoms: _91  and  _92
REMARK   40  A    between atoms: _97  and  _99
REMARK   41  A    between atoms: _99  and  _100
REMARK   42  A    between atoms: _99  and  _102
REMARK   43  A    between atoms: _102  and  _103
REMARK   44  A    between atoms: _103  and  _104
REMARK   45  A    between atoms: _104  and  _105
REMARK   46  A    between atoms: _115  and  _116
REMARK   47  A    between atoms: _121  and  _123
REMARK   48  A    between atoms: _123  and  _124
REMARK   49  A    between atoms: _123  and  _126
REMARK   50  A    between atoms: _126  and  _127
REMARK   51  A    between atoms: _132  and  _133
REMARK   52  A    between atoms: _135  and  _137
REMARK   53  A    between atoms: _137  and  _138
REMARK   54  A    between atoms: _137  and  _140
REMARK   55  A    between atoms: _140  and  _141
REMARK   56  A    between atoms: _146  and  _147
REMARK   57  A    between atoms: _149  and  _151
REMARK   58  A    between atoms: _151  and  _152
REMARK   59  A    between atoms: _151  and  _154
REMARK   60  A    between atoms: _157  and  _159
REMARK   61  A    between atoms: _159  and  _160
REMARK   62  A    between atoms: _159  and  _162
REMARK   63  A    between atoms: _162  and  _163
REMARK   64  A    between atoms: _169  and  _170
REMARK   65  A    between atoms: _175  and  _177
REMARK   66  A    between atoms: _177  and  _178
REMARK   67  A    between atoms: _177  and  _180
REMARK   68  A    between atoms: _180  and  _181
REMARK   69  A    between atoms: _183  and  _185
REMARK   70  A    between atoms: _185  and  _186
REMARK   71  A    between atoms: _185  and  _188
REMARK   72  A    between atoms: _188  and  _189
REMARK   73  A    between atoms: _189  and  _190
REMARK   74  A    between atoms: _193  and  _195
REMARK   75  A    between atoms: _195  and  _196
REMARK   76  A    between atoms: _195  and  _198
REMARK   77  A    between atoms: _198  and  _199
REMARK   78  A    between atoms: _204  and  _205
REMARK   79  A    between atoms: _207  and  _209
REMARK   80  A    between atoms: _209  and  _210
REMARK   81  A    between atoms: _209  and  _212
REMARK   82  A    between atoms: _212  and  _213
REMARK   83  A    between atoms: _218  and  _220
REMARK   84  A    between atoms: _220  and  _221
REMARK   85  A    between atoms: _220  and  _223
REMARK   86  A    between atoms: _223  and  _224
REMARK   87  A    between atoms: _229  and  _231
REMARK   88  A    between atoms: _231  and  _232
REMARK   89  A    between atoms: _231  and  _234
REMARK   90  A    between atoms: _234  and  _235
REMARK   91  A    between atoms: _235  and  _236
REMARK   92  A    between atoms: _238  and  _240
REMARK   93  A    between atoms: _240  and  _241
REMARK   94  A    between atoms: _240  and  _243
REMARK   95  A    between atoms: _243  and  _244
REMARK   96  A    between atoms: _249  and  _250
REMARK   97  A    between atoms: _252  and  _254
REMARK   98  A    between atoms: _254  and  _255
REMARK   99  A    between atoms: _254  and  _257
REMARK  100  A    between atoms: _257  and  _258
REMARK  101  A    between atoms: _261  and  _263
REMARK  102  A    between atoms: _263  and  _264
REMARK  103  A    between atoms: _263  and  _266
REMARK  104  A    between atoms: _266  and  _267
REMARK  105  A    between atoms: _267  and  _484
REMARK  106  A    between atoms: _268  and  _270
REMARK  107  A    between atoms: _270  and  _271
REMARK  108  A    between atoms: _270  and  _273
REMARK  109  A    between atoms: _273  and  _274
REMARK  110  A    between atoms: _277  and  _279
REMARK  111  A    between atoms: _279  and  _280
REMARK  112  A    between atoms: _279  and  _282
REMARK  113  A    between atoms: _282  and  _283
REMARK  114  A    between atoms: _288  and  _289
REMARK  115  A    between atoms: _291  and  _293
REMARK  116  A    between atoms: _293  and  _294
REMARK  117  A    between atoms: _293  and  _296
REMARK  118  A    between atoms: _296  and  _297
REMARK  119  A    between atoms: _302  and  _303
REMARK  120  A    between atoms: _305  and  _307
REMARK  121  A    between atoms: _307  and  _308
REMARK  122  A    between atoms: _307  and  _310
REMARK  123  A    between atoms: _310  and  _311
REMARK  124  A    between atoms: _311  and  _312
REMARK  125  A    between atoms: _315  and  _317
REMARK  126  A    between atoms: _317  and  _318
REMARK  127  A    between atoms: _317  and  _320
REMARK  128  A    between atoms: _320  and  _321
REMARK  129  A    between atoms: _326  and  _327
REMARK  130  A    between atoms: _329  and  _331
REMARK  131  A    between atoms: _331  and  _332
REMARK  132  A    between atoms: _331  and  _334
REMARK  133  A    between atoms: _334  and  _335
REMARK  134  A    between atoms: _340  and  _342
REMARK  135  A    between atoms: _342  and  _343
REMARK  136  A    between atoms: _342  and  _345
REMARK  137  A    between atoms: _345  and  _346
REMARK  138  A    between atoms: _349  and  _351
REMARK  139  A    between atoms: _351  and  _352
REMARK  140  A    between atoms: _351  and  _354
REMARK  141  A    between atoms: _354  and  _355
REMARK  142  A    between atoms: _360  and  _362
REMARK  143  A    between atoms: _362  and  _363
REMARK  144  A    between atoms: _362  and  _365
REMARK  145  A    between atoms: _365  and  _366
REMARK  146  A    between atoms: _376  and  _378
REMARK  147  A    between atoms: _378  and  _379
REMARK  148  A    between atoms: _378  and  _381
REMARK  149  A    between atoms: _381  and  _382
REMARK  150  A    between atoms: _388  and  _390
REMARK  151  A    between atoms: _390  and  _391
REMARK  152  A    between atoms: _390  and  _393
REMARK  153  A    between atoms: _393  and  _394
REMARK  154  A    between atoms: _397  and  _399
REMARK  155  A    between atoms: _399  and  _400
REMARK  156  A    between atoms: _399  and  _402
REMARK  157  A    between atoms: _402  and  _403
REMARK  158  A    between atoms: _406  and  _408
REMARK  159  A    between atoms: _408  and  _409
REMARK  160  A    between atoms: _408  and  _411
REMARK  161  A    between atoms: _411  and  _412
REMARK  162  A    between atoms: _412  and  _413
REMARK  163  A    between atoms: _413  and  _414
REMARK  164  A    between atoms: _423  and  _425
REMARK  165  A    between atoms: _425  and  _426
REMARK  166  A    between atoms: _425  and  _428
REMARK  167  A    between atoms: _428  and  _429
REMARK  168  A    between atoms: _434  and  _436
REMARK  169  A    between atoms: _436  and  _437
REMARK  170  A    between atoms: _436  and  _439
REMARK  171  A    between atoms: _439  and  _440
REMARK  172  A    between atoms: _441  and  _442
REMARK  173  A    between atoms: _451  and  _453
REMARK  174  A    between atoms: _453  and  _454
REMARK  175  A    between atoms: _457  and  _459
REMARK  176  A    between atoms: _459  and  _460
REMARK  177  A    between atoms: _462  and  _464
REMARK  178  A    between atoms: _464  and  _465
REMARK  179  A    between atoms: _464  and  _467
REMARK  180  A    between atoms: _467  and  _468
REMARK  181  A    between atoms: _478  and  _480
REMARK  182  A    between atoms: _480  and  _481
REMARK  183  A    between atoms: _480  and  _483
REMARK  184  A    between atoms: _483  and  _484
REMARK  185  A    between atoms: _485  and  _487
REMARK  186  A    between atoms: _487  and  _488
REMARK  187  A    between atoms: _491  and  _493
REMARK  188  A    between atoms: _493  and  _494
REMARK  189  A    between atoms: _493  and  _496
REMARK  190  A    between atoms: _496  and  _497
REMARK  191  A    between atoms: _500  and  _502
REMARK  192  A    between atoms: _502  and  _503
REMARK  193  A    between atoms: _502  and  _505
REMARK  194  A    between atoms: _505  and  _506
REMARK  195  A    between atoms: _511  and  _512
REMARK  196  A    between atoms: _514  and  _516
REMARK  197  A    between atoms: _516  and  _517
REMARK  198  A    between atoms: _516  and  _519
REMARK  199  A    between atoms: _519  and  _520
REMARK  200  A    between atoms: _522  and  _524
REMARK  201  A    between atoms: _524  and  _525
REMARK  202  A    between atoms: _524  and  _527
REMARK  203  A    between atoms: _527  and  _528
REMARK  204  A    between atoms: _534  and  _536
REMARK  205  A    between atoms: _536  and  _537
REMARK  206  A    between atoms: _536  and  _539
REMARK  207  A    between atoms: _539  and  _540
REMARK  208  A    between atoms: _543  and  _545
REMARK  209  A    between atoms: _545  and  _546
REMARK  210  A    between atoms: _545  and  _548
REMARK  211  A    between atoms: _548  and  _549
REMARK  212  A    between atoms: _551  and  _553
REMARK  213  A    between atoms: _553  and  _554
REMARK  214  A    between atoms: _553  and  _556
REMARK  215  A    between atoms: _556  and  _557
REMARK  216  A    between atoms: _562  and  _564
REMARK  217  A    between atoms: _564  and  _565
REMARK  218  A    between atoms: _564  and  _567
REMARK  219  A    between atoms: _567  and  _568
REMARK  220  A    between atoms: _571  and  _573
REMARK  221  A    between atoms: _573  and  _574
REMARK  222  A    between atoms: _573  and  _576
REMARK  223  A    between atoms: _576  and  _577
REMARK  224  A    between atoms: _582  and  _583
REMARK  225  A    between atoms: _585  and  _587
REMARK  226  A    between atoms: _587  and  _588
REMARK  227  A    between atoms: _587  and  _590
REMARK  228  A    between atoms: _590  and  _591
REMARK  229  A    between atoms: _596  and  _597
REMARK  230  A    between atoms: _599  and  _601
REMARK  231  A    between atoms: _601  and  _602
REMARK  232  A    between atoms: _601  and  _604
REMARK  233  A    between atoms: _607  and  _609
REMARK  234  A    between atoms: _609  and  _610
REMARK  235  A    between atoms: _609  and  _612
REMARK  236  A    between atoms: _612  and  _613
REMARK  237  A    between atoms: _618  and  _620
REMARK  238  A    between atoms: _620  and  _621
REMARK  239  A    between atoms: _624  and  _626
REMARK  240  A    between atoms: _626  and  _627
REMARK  241  A    between atoms: _626  and  _629
REMARK  242  A    between atoms: _629  and  _630
REMARK  243  A    between atoms: _630  and  _631
REMARK  244  A    between atoms: _631  and  _632
REMARK  245  A    between atoms: _641  and  _643
REMARK  246  A    between atoms: _643  and  _644
REMARK  247  A    between atoms: _643  and  _646
REMARK  248  A    between atoms: _646  and  _647
REMARK  249  A    between atoms: _650  and  _652
REMARK  250  A    between atoms: _652  and  _653
REMARK  251  A    between atoms: _652  and  _655
REMARK  252  A    between atoms: _655  and  _656
REMARK  253  A    between atoms: _659  and  _661
REMARK  254  A    between atoms: _661  and  _662
REMARK  255  A    between atoms: _661  and  _664
REMARK  256  A    between atoms: _664  and  _665
REMARK                            x       y       z     vdW  Elec       q    Type
REMARK                         _______ _______ _______ _____ _____    ______ ____
ROOT
ATOM      1  CA  GLU A   1     -12.413  23.234  10.477  0.00  0.00    +0.134 C 
ENDROOT
BRANCH   1   2
ATOM      2  N   GLU A   1     -12.131  24.588  10.960  0.00  0.00    -0.239 NA
ATOM      3  H   GLU A   1     -12.085  24.752  11.986  0.00  0.00    +0.142 HD
ENDBRANCH   1   2
BRANCH   1   4
ATOM      4  C   GLU A   1     -13.800  23.203   9.814  0.00  0.00    +0.224 C 
ATOM      5  O   GLU A   1     -14.052  22.448   8.855  0.00  0.00    -0.287 OA
ENDBRANCH   1   4
BRANCH   1   6
ATOM      6  CB  GLU A   1     -12.286  22.254  11.642  0.00  0.00    +0.037 C 
BRANCH   6   7
ATOM      7  CG  GLU A   1     -10.849  22.139  12.231  0.00  0.00    +0.116 C 
BRANCH   7   8
ATOM      8  CD  GLU A   1     -10.542  23.133  13.326  0.00  0.00    +0.365 C 
ATOM      9  OE2 GLU A   1      -9.377  23.133  13.831  0.00  0.00    -0.246 OA
ATOM     10  OE1 GLU A   1     -11.431  23.967  13.661  0.00  0.00    -0.246 OA
ENDBRANCH   7   8
ENDBRANCH   6   7
ENDBRANCH   1   6
TORSDOF 5
REMARK  Name = ../refined-set-2016/1b6h/1b6h_pocket.pdb
REMARK  256 active torsions:
REMARK  status: ('A' for Active; 'I' for Inactive)
REMARK    1  A    between atoms: _1  and  _3
REMARK    2  A    between atoms: _3  and  _4
REMARK    3  A    between atoms: _3  and  _6
REMARK    4  A    between atoms: _6  and  _7
REMARK    5  A    between atoms: _12  and  _14
REMARK    6  A    between atoms: _14  and  _15
REMARK    7  A    between atoms: _17  and  _19
REMARK    8  A    between atoms: _19  and  _20
REMARK    9  A    between atoms: _19  and  _22
REMARK   10  A    between atoms: _22  and  _23
REMARK   11  A    between atoms: _23  and  _24
REMARK   12  A    between atoms: _29  and  _31
REMARK   13  A    between atoms: _31  and  _32
REMARK   14  A    between atoms: _31  and  _34
REMARK   15  A    between atoms: _34  and  _35
REMARK   16  A    between atoms: _38  and  _40
REMARK   17  A    between atoms: _40  and  _41
REMARK   18  A    between atoms: _40  and  _43
REMARK   19  A    between atoms: _43  and  _44
REMARK   20  A    between atoms: _44  and  _45
REMARK   21  A    between atoms: _48  and  _50
REMARK   22  A    between atoms: _50  and  _51
REMARK   23  A    between atoms: _53  and  _55
REMARK   24  A    between atoms: _55  and  _56
REMARK   25  A    between atoms: _55  and  _58
REMARK   26  A    between atoms: _62  and  _63
REMARK   27  A    between atoms: _68  and  _70
REMARK   28  A    between atoms: _70  and  _71
REMARK   29  A    between atoms: _70  and  _73
REMARK   30  A    between atoms: _73  and  _74
REMARK   31  A    between atoms: _74  and  _75
REMARK   32  A    between atoms: _78  and  _80
REMARK   33  A    between atoms: _80  and  _81
REMARK   34  A    between atoms: _80  and  _83
REMARK   35  A    between atoms: _83  and  _84
REMARK   36  A    between atoms: _86  and  _88
REMARK   37  A    between atoms: _88  and  _89
REMARK   38  A    between atoms: _88  and  _91
REMARK   39  A    between atoms: _91  and  _92
REMARK   40  A    between atoms: _97  and  _99
REMARK   41  A    between atoms: _99  and  _100
REMARK   42  A    between atoms: _99  and  _102
REMARK   43  A    between atoms: _102  and  _103
REMARK   44  A    between atoms: _103  and  _104
REMARK   45  A    between atoms: _104  and  _105
REMARK   46  A    between atoms: _115  and  _116
REMARK   47  A    between atoms: _121  and  _123
REMARK   48  A    between atoms: _123  and  _124
REMARK   49  A    between atoms: _123  and  _126
REMARK   50  A    between atoms: _126  and  _127
REMARK   51  A    between atoms: _132  and  _133
REMARK   52  A    between atoms: _135  and  _137
REMARK   53  A    between atoms: _137  and  _138
REMARK   54  A    between atoms: _137  and  _140
REMARK   55  A    between atoms: _140  and  _141
REMARK   56  A    between atoms: _146  and  _147
REMARK   57  A    between atoms: _149  and  _151
REMARK   58  A    between atoms: _151  and  _152
REMARK   59  A    between atoms: _151  and  _154
REMARK   60  A    between atoms: _157  and  _159
REMARK   61  A    between atoms: _159  and  _160
REMARK   62  A    between atoms: _159  and  _162
REMARK   63  A    between atoms: _162  and  _163
REMARK   64  A    between atoms: _169  and  _170
REMARK   65  A    between atoms: _175  and  _177
REMARK   66  A    between atoms: _177  and  _178
REMARK   67  A    between atoms: _177  and  _180
REMARK   68  A    between atoms: _180  and  _181
REMARK   69  A    between atoms: _183  and  _185
REMARK   70  A    between atoms: _185  and  _186
REMARK   71  A    between atoms: _185  and  _188
REMARK   72  A    between atoms: _188  and  _189
REMARK   73  A    between atoms: _189  and  _190
REMARK   74  A    between atoms: _193  and  _195
REMARK   75  A    between atoms: _195  and  _196
REMARK   76  A    between atoms: _195  and  _198
REMARK   77  A    between atoms: _198  and  _199
REMARK   78  A    between atoms: _204  and  _205
REMARK   79  A    between atoms: _207  and  _209
REMARK   80  A    between atoms: _209  and  _210
REMARK   81  A    between atoms: _209  and  _212
REMARK   82  A    between atoms: _212  and  _213
REMARK   83  A    between atoms: _218  and  _220
REMARK   84  A    between atoms: _220  and  _221
REMARK   85  A    between atoms: _220  and  _223
REMARK   86  A    between atoms: _223  and  _224
REMARK   87  A    between atoms: _229  and  _231
REMARK   88  A    between atoms: _231  and  _232
REMARK   89  A    between atoms: _231  and  _234
REMARK   90  A    between atoms: _234  and  _235
REMARK   91  A    between atoms: _235  and  _236
REMARK   92  A    between atoms: _238  and  _240
REMARK   93  A    between atoms: _240  and  _241
REMARK   94  A    between atoms: _240  and  _243
REMARK   95  A    between atoms: _243  and  _244
REMARK   96  A    between atoms: _249  and  _250
REMARK   97  A    between atoms: _252  and  _254
REMARK   98  A    between atoms: _254  and  _255
REMARK   99  A    between atoms: _254  and  _257
REMARK  100  A    between atoms: _257  and  _258
REMARK  101  A    between atoms: _261  and  _263
REMARK  102  A    between atoms: _263  and  _264
REMARK  103  A    between atoms: _263  and  _266
REMARK  104  A    between atoms: _266  and  _267
REMARK  105  A    between atoms: _267  and  _484
REMARK  106  A    between atoms: _268  and  _270
REMARK  107  A    between atoms: _270  and  _271
REMARK  108  A    between atoms: _270  and  _273
REMARK  109  A    between atoms: _273  and  _274
REMARK  110  A    between atoms: _277  and  _279
REMARK  111  A    between atoms: _279  and  _280
REMARK  112  A    between atoms: _279  and  _282
REMARK  113  A    between atoms: _282  and  _283
REMARK  114  A    between atoms: _288  and  _289
REMARK  115  A    between atoms: _291  and  _293
REMARK  116  A    between atoms: _293  and  _294
REMARK  117  A    between atoms: _293  and  _296
REMARK  118  A    between atoms: _296  and  _297
REMARK  119  A    between atoms: _302  and  _303
REMARK  120  A    between atoms: _305  and  _307
REMARK  121  A    between atoms: _307  and  _308
REMARK  122  A    between atoms: _307  and  _310
REMARK  123  A    between atoms: _310  and  _311
REMARK  124  A    between atoms: _311  and  _312
REMARK  125  A    between atoms: _315  and  _317
REMARK  126  A    between atoms: _317  and  _318
REMARK  127  A    between atoms: _317  and  _320
REMARK  128  A    between atoms: _320  and  _321
REMARK  129  A    between atoms: _326  and  _327
REMARK  130  A    between atoms: _329  and  _331
REMARK  131  A    between atoms: _331  and  _332
REMARK  132  A    between atoms: _331  and  _334
REMARK  133  A    between atoms: _334  and  _335
REMARK  134  A    between atoms: _340  and  _342
REMARK  135  A    between atoms: _342  and  _343
REMARK  136  A    between atoms: _342  and  _345
REMARK  137  A    between atoms: _345  and  _346
REMARK  138  A    between atoms: _349  and  _351
REMARK  139  A    between atoms: _351  and  _352
REMARK  140  A    between atoms: _351  and  _354
REMARK  141  A    between atoms: _354  and  _355
REMARK  142  A    between atoms: _360  and  _362
REMARK  143  A    between atoms: _362  and  _363
REMARK  144  A    between atoms: _362  and  _365
REMARK  145  A    between atoms: _365  and  _366
REMARK  146  A    between atoms: _376  and  _378
REMARK  147  A    between atoms: _378  and  _379
REMARK  148  A    between atoms: _378  and  _381
REMARK  149  A    between atoms: _381  and  _382
REMARK  150  A    between atoms: _388  and  _390
REMARK  151  A    between atoms: _390  and  _391
REMARK  152  A    between atoms: _390  and  _393
REMARK  153  A    between atoms: _393  and  _394
REMARK  154  A    between atoms: _397  and  _399
REMARK  155  A    between atoms: _399  and  _400
REMARK  156  A    between atoms: _399  and  _402
REMARK  157  A    between atoms: _402  and  _403
REMARK  158  A    between atoms: _406  and  _408
REMARK  159  A    between atoms: _408  and  _409
REMARK  160  A    between atoms: _408  and  _411
REMARK  161  A    between atoms: _411  and  _412
REMARK  162  A    between atoms: _412  and  _413
REMARK  163  A    between atoms: _413  and  _414
REMARK  164  A    between atoms: _423  and  _425
REMARK  165  A    between atoms: _425  and  _426
REMARK  166  A    between atoms: _425  and  _428
REMARK  167  A    between atoms: _428  and  _429
REMARK  168  A    between atoms: _434  and  _436
REMARK  169  A    between atoms: _436  and  _437
REMARK  170  A    between atoms: _436  and  _439
REMARK  171  A    between atoms: _439  and  _440
REMARK  172  A    between atoms: _441  and  _442
REMARK  173  A    between atoms: _451  and  _453
REMARK  174  A    between atoms: _453  and  _454
REMARK  175  A    between atoms: _457  and  _459
REMARK  176  A    between atoms: _459  and  _460
REMARK  177  A    between atoms: _462  and  _464
REMARK  178  A    between atoms: _464  and  _465
REMARK  179  A    between atoms: _464  and  _467
REMARK  180  A    between atoms: _467  and  _468
REMARK  181  A    between atoms: _478  and  _480
REMARK  182  A    between atoms: _480  and  _481
REMARK  183  A    between atoms: _480  and  _483
REMARK  184  A    between atoms: _483  and  _484
REMARK  185  A    between atoms: _485  and  _487
REMARK  186  A    between atoms: _487  and  _488
REMARK  187  A    between atoms: _491  and  _493
REMARK  188  A    between atoms: _493  and  _494
REMARK  189  A    between atoms: _493  and  _496
REMARK  190  A    between atoms: _496  and  _497
REMARK  191  A    between atoms: _500  and  _502
REMARK  192  A    between atoms: _502  and  _503
REMARK  193  A    between atoms: _502  and  _505
REMARK  194  A    between atoms: _505  and  _506
REMARK  195  A    between atoms: _511  and  _512
REMARK  196  A    between atoms: _514  and  _516
REMARK  197  A    between atoms: _516  and  _517
REMARK  198  A    between atoms: _516  and  _519
REMARK  199  A    between atoms: _519  and  _520
REMARK  200  A    between atoms: _522  and  _524
REMARK  201  A    between atoms: _524  and  _525
REMARK  202  A    between atoms: _524  and  _527
REMARK  203  A    between atoms: _527  and  _528
REMARK  204  A    between atoms: _534  and  _536
REMARK  205  A    between atoms: _536  and  _537
REMARK  206  A    between atoms: _536  and  _539
REMARK  207  A    between atoms: _539  and  _540
REMARK  208  A    between atoms: _543  and  _545
REMARK  209  A    between atoms: _545  and  _546
REMARK  210  A    between atoms: _545  and  _548
REMARK  211  A    between atoms: _548  and  _549
REMARK  212  A    between atoms: _551  and  _553
REMARK  213  A    between atoms: _553  and  _554
REMARK  214  A    between atoms: _553  and  _556
REMARK  215  A    between atoms: _556  and  _557
REMARK  216  A    between atoms: _562  and  _564
REMARK  217  A    between atoms: _564  and  _565
REMARK  218  A    between atoms: _564  and  _567
REMARK  219  A    between atoms: _567  and  _568
REMARK  220  A    between atoms: _571  and  _573
REMARK  221  A    between atoms: _573  and  _574
REMARK  222  A    between atoms: _573  and  _576
REMARK  223  A    between atoms: _576  and  _577
REMARK  224  A    between atoms: _582  and  _583
REMARK  225  A    between atoms: _585  and  _587
REMARK  226  A    between atoms: _587  and  _588
REMARK  227  A    between atoms: _587  and  _590
REMARK  228  A    between atoms: _590  and  _591
REMARK  229  A    between atoms: _596  and  _597
REMARK  230  A    between atoms: _599  and  _601
REMARK  231  A    between atoms: _601  and  _602
REMARK  232  A    between atoms: _601  and  _604
REMARK  233  A    between atoms: _607  and  _609
REMARK  234  A    between atoms: _609  and  _610
REMARK  235  A    between atoms: _609  and  _612
REMARK  236  A    between atoms: _612  and  _613
REMARK  237  A    between atoms: _618  and  _620
REMARK  238  A    between atoms: _620  and  _621
REMARK  239  A    between atoms: _624  and  _626
REMARK  240  A    between atoms: _626  and  _627
REMARK  241  A    between atoms: _626  and  _629
REMARK  242  A    between atoms: _629  and  _630
REMARK  243  A    between atoms: _630  and  _631
REMARK  244  A    between atoms: _631  and  _632
REMARK  245  A    between atoms: _641  and  _643
REMARK  246  A    between atoms: _643  and  _644
REMARK  247  A    between atoms: _643  and  _646
REMARK  248  A    between atoms: _646  and  _647
REMARK  249  A    between atoms: _650  and  _652
REMARK  250  A    between atoms: _652  and  _653
REMARK  251  A    between atoms: _652  and  _655
REMARK  252  A    between atoms: _655  and  _656
REMARK  253  A    between atoms: _659  and  _661
REMARK  254  A    between atoms: _661  and  _662
REMARK  255  A    between atoms: _661  and  _664
REMARK  256  A    between atoms: _664  and  _665
REMARK                            x       y       z     vdW  Elec       q    Type
REMARK                         _______ _______ _______ _____ _____    ______ ____
ROOT
ATOM      1  CA  ASN A   2      -6.914  16.585   9.450  0.00  0.00    +0.158 C 
ENDROOT
BRANCH   1   3
ATOM      2  C   TYR A   1      -7.332  18.233   7.733  0.00  0.00    +0.239 C 
ATOM      3  N   ASN A   2      -6.495  17.655   8.583  0.00  0.00    -0.297 N 
ATOM      4  H   ASN A   2      -5.509  17.983   8.625  0.00  0.00    +0.150 HD
ATOM      5  O   TYR A   1      -8.528  17.905   7.674  0.00  0.00    -0.274 OA
BRANCH   2   6
ATOM      6  CA  TYR A   1      -6.850  19.302   6.744  0.00  0.00    +0.149 C 
BRANCH   6   7
ATOM      7  N   TYR A   1      -7.976  19.476   5.811  0.00  0.00    -0.238 NA
ATOM      8  H   TYR A   1      -8.596  20.309   5.872  0.00  0.00    +0.142 HD
ENDBRANCH   6   7
BRANCH   6   9
ATOM      9  CB  TYR A   1      -6.513  20.608   7.421  0.00  0.00    +0.053 C 
BRANCH   9  10
ATOM     10  CG  TYR A   1      -5.340  20.523   8.376  0.00  0.00    -0.020 A 
ATOM     11  CD2 TYR A   1      -5.529  20.796   9.724  0.00  0.00    -0.001 A 
ATOM     12  CE2 TYR A   1      -4.460  20.710  10.616  0.00  0.00    +0.036 A 
ATOM     13  CZ  TYR A   1      -3.217  20.367  10.135  0.00  0.00    +0.134 A 
ATOM     14  CE1 TYR A   1      -3.005  20.108   8.793  0.00  0.00    +0.036 A 
ATOM     15  CD1 TYR A   1      -4.081  20.183   7.919  0.00  0.00    -0.001 A 
BRANCH  13  16
ATOM     16  OH  TYR A   1      -2.175  20.294  11.034  0.00  0.00    -0.506 OA
ATOM     17  HH  TYR A   1      -2.051  21.176  11.466  0.00  0.00    +0.292 HD
ENDBRANCH  13  16
ENDBRANCH   9  10
ENDBRANCH   6   9
ENDBRANCH   2   6
ENDBRANCH   1   3
BRANCH   1  18
ATOM     18  C   ASN A   2      -7.108  17.065  10.884  0.00  0.00    +0.241 C 
ATOM     19  O   ASN A   2      -6.506  16.558  11.815  0.00  0.00    -0.273 OA
ATOM     20  N   ASN A   3      -7.947  18.058  11.025  0.00  0.00    -0.297 N 
ATOM     21  H   ASN A   3      -8.210  18.541  10.142  0.00  0.00    +0.150 HD
BRANCH  20  22
ATOM     22  CA  ASN A   3      -8.563  18.586  12.218  0.00  0.00    +0.158 C 
BRANCH  22  23
ATOM     23  C   ASN A   3     -10.075  18.612  11.880  0.00  0.00    +0.241 C 
ATOM     24  N   MET A   4     -10.948  17.934  12.604  0.00  0.00    -0.298 N 
ATOM     25  H   MET A   4     -10.639  17.409  13.447  0.00  0.00    +0.150 HD
ATOM     26  O   ASN A   3     -10.382  19.194  10.822  0.00  0.00    -0.273 OA
BRANCH  24  27
ATOM     27  CA  MET A   4     -12.365  17.932  12.201  0.00  0.00    +0.138 C 
BRANCH  27  28
ATOM     28  C   MET A   4     -13.229  18.739  13.189  0.00  0.00    +0.227 C 
ATOM     29  O   MET A   4     -12.992  18.726  14.389  0.00  0.00    -0.286 OA
ENDBRANCH  27  28
BRANCH  27  30
ATOM     30  CB  MET A   4     -12.836  16.492  12.100  0.00  0.00    +0.039 C 
BRANCH  30  31
ATOM     31  CG  MET A   4     -12.374  15.636  10.955  0.00  0.00    +0.060 C 
BRANCH  31  32
ATOM     32  SD  MET A   4     -13.139  16.007   9.375  0.00  0.00    -0.139 S 
ATOM     33  CE  MET A   4     -12.180  17.364   8.745  0.00  0.00    +0.069 C 
ENDBRANCH  31  32
ENDBRANCH  30  31
ENDBRANCH  27  30
ENDBRANCH  24  27
ENDBRANCH  22  23
BRANCH  22  34
ATOM     34  CB  ASN A   3      -8.155  19.999  12.575  0.00  0.00    +0.114 C 
BRANCH  34  35
ATOM     35  CG  ASN A   3      -6.894  20.152  13.389  0.00  0.00    +0.222 C 
ATOM     36  OD1 ASN A   3      -6.339  19.187  13.880  0.00  0.00    -0.275 OA
ATOM     37  ND2 ASN A   3      -6.443  21.414  13.514  0.00  0.00    -0.329 N 
ATOM     38 HD21 ASN A   3      -5.575  21.605  14.054  0.00  0.00    +0.145 HD
ATOM     39 HD22 ASN A   3      -6.962  22.198  13.070  0.00  0.00    +0.145 HD
ENDBRANCH  34  35
ENDBRANCH  22  34
ENDBRANCH  20  22
ENDBRANCH   1  18
BRANCH   1  40
ATOM     40  CB  ASN A   2      -6.025  15.342   9.379  0.00  0.00    +0.114 C 
BRANCH  40  41
ATOM     41  CG  ASN A   2      -4.558  15.657   9.583  0.00  0.00    +0.222 C 
ATOM     42  ND2 ASN A   2      -3.783  14.614   9.804  0.00  0.00    -0.329 N 
ATOM     43 HD21 ASN A   2      -2.766  14.749   9.973  0.00  0.00    +0.145 HD
ATOM     44 HD22 ASN A   2      -4.189  13.656   9.809  0.00  0.00    +0.145 HD
ATOM     45  OD1 ASN A   2      -4.158  16.808   9.561  0.00  0.00    -0.275 OA
ENDBRANCH  40  41
ENDBRANCH   1  40
TORSDOF 18
REMARK  Name = ../refined-set-2016/1b6h/1b6h_pocket.pdb
REMARK  256 active torsions:
REMARK  status: ('A' for Active; 'I' for Inactive)
REMARK    1  A    between atoms: _1  and  _3
REMARK    2  A    between atoms: _3  and  _4
REMARK    3  A    between atoms: _3  and  _6
REMARK    4  A    between atoms: _6  and  _7
REMARK    5  A    between atoms: _12  and  _14
REMARK    6  A    between atoms: _14  and  _15
REMARK    7  A    between atoms: _17  and  _19
REMARK    8  A    between atoms: _19  and  _20
REMARK    9  A    between atoms: _19  and  _22
REMARK   10  A    between atoms: _22  and  _23
REMARK   11  A    between atoms: _23  and  _24
REMARK   12  A    between atoms: _29  and  _31
REMARK   13  A    between atoms: _31  and  _32
REMARK   14  A    between atoms: _31  and  _34
REMARK   15  A    between atoms: _34  and  _35
REMARK   16  A    between atoms: _38  and  _40
REMARK   17  A    between atoms: _40  and  _41
REMARK   18  A    between atoms: _40  and  _43
REMARK   19  A    between atoms: _43  and  _44
REMARK   20  A    between atoms: _44  and  _45
REMARK   21  A    between atoms: _48  and  _50
REMARK   22  A    between atoms: _50  and  _51
REMARK   23  A    between atoms: _53  and  _55
REMARK   24  A    between atoms: _55  and  _56
REMARK   25  A    between atoms: _55  and  _58
REMARK   26  A    between atoms: _62  and  _63
REMARK   27  A    between atoms: _68  and  _70
REMARK   28  A    between atoms: _70  and  _71
REMARK   29  A    between atoms: _70  and  _73
REMARK   30  A    between atoms: _73  and  _74
REMARK   31  A    between atoms: _74  and  _75
REMARK   32  A    between atoms: _78  and  _80
REMARK   33  A    between atoms: _80  and  _81
REMARK   34  A    between atoms: _80  and  _83
REMARK   35  A    between atoms: _83  and  _84
REMARK   36  A    between atoms: _86  and  _88
REMARK   37  A    between atoms: _88  and  _89
REMARK   38  A    between atoms: _88  and  _91
REMARK   39  A    between atoms: _91  and  _92
REMARK   40  A    between atoms: _97  and  _99
REMARK   41  A    between atoms: _99  and  _100
REMARK   42  A    between atoms: _99  and  _102
REMARK   43  A    between atoms: _102  and  _103
REMARK   44  A    between atoms: _103  and  _104
REMARK   45  A    between atoms: _104  and  _105
REMARK   46  A    between atoms: _115  and  _116
REMARK   47  A    between atoms: _121  and  _123
REMARK   48  A    between atoms: _123  and  _124
REMARK   49  A    between atoms: _123  and  _126
REMARK   50  A    between atoms: _126  and  _127
REMARK   51  A    between atoms: _132  and  _133
REMARK   52  A    between atoms: _135  and  _137
REMARK   53  A    between atoms: _137  and  _138
REMARK   54  A    between atoms: _137  and  _140
REMARK   55  A    between atoms: _140  and  _141
REMARK   56  A    between atoms: _146  and  _147
REMARK   57  A    between atoms: _149  and  _151
REMARK   58  A    between atoms: _151  and  _152
REMARK   59  A    between atoms: _151  and  _154
REMARK   60  A    between atoms: _157  and  _159
REMARK   61  A    between atoms: _159  and  _160
REMARK   62  A    between atoms: _159  and  _162
REMARK   63  A    between atoms: _162  and  _163
REMARK   64  A    between atoms: _169  and  _170
REMARK   65  A    between atoms: _175  and  _177
REMARK   66  A    between atoms: _177  and  _178
REMARK   67  A    between atoms: _177  and  _180
REMARK   68  A    between atoms: _180  and  _181
REMARK   69  A    between atoms: _183  and  _185
REMARK   70  A    between atoms: _185  and  _186
REMARK   71  A    between atoms: _185  and  _188
REMARK   72  A    between atoms: _188  and  _189
REMARK   73  A    between atoms: _189  and  _190
REMARK   74  A    between atoms: _193  and  _195
REMARK   75  A    between atoms: _195  and  _196
REMARK   76  A    between atoms: _195  and  _198
REMARK   77  A    between atoms: _198  and  _199
REMARK   78  A    between atoms: _204  and  _205
REMARK   79  A    between atoms: _207  and  _209
REMARK   80  A    between atoms: _209  and  _210
REMARK   81  A    between atoms: _209  and  _212
REMARK   82  A    between atoms: _212  and  _213
REMARK   83  A    between atoms: _218  and  _220
REMARK   84  A    between atoms: _220  and  _221
REMARK   85  A    between atoms: _220  and  _223
REMARK   86  A    between atoms: _223  and  _224
REMARK   87  A    between atoms: _229  and  _231
REMARK   88  A    between atoms: _231  and  _232
REMARK   89  A    between atoms: _231  and  _234
REMARK   90  A    between atoms: _234  and  _235
REMARK   91  A    between atoms: _235  and  _236
REMARK   92  A    between atoms: _238  and  _240
REMARK   93  A    between atoms: _240  and  _241
REMARK   94  A    between atoms: _240  and  _243
REMARK   95  A    between atoms: _243  and  _244
REMARK   96  A    between atoms: _249  and  _250
REMARK   97  A    between atoms: _252  and  _254
REMARK   98  A    between atoms: _254  and  _255
REMARK   99  A    between atoms: _254  and  _257
REMARK  100  A    between atoms: _257  and  _258
REMARK  101  A    between atoms: _261  and  _263
REMARK  102  A    between atoms: _263  and  _264
REMARK  103  A    between atoms: _263  and  _266
REMARK  104  A    between atoms: _266  and  _267
REMARK  105  A    between atoms: _267  and  _484
REMARK  106  A    between atoms: _268  and  _270
REMARK  107  A    between atoms: _270  and  _271
REMARK  108  A    between atoms: _270  and  _273
REMARK  109  A    between atoms: _273  and  _274
REMARK  110  A    between atoms: _277  and  _279
REMARK  111  A    between atoms: _279  and  _280
REMARK  112  A    between atoms: _279  and  _282
REMARK  113  A    between atoms: _282  and  _283
REMARK  114  A    between atoms: _288  and  _289
REMARK  115  A    between atoms: _291  and  _293
REMARK  116  A    between atoms: _293  and  _294
REMARK  117  A    between atoms: _293  and  _296
REMARK  118  A    between atoms: _296  and  _297
REMARK  119  A    between atoms: _302  and  _303
REMARK  120  A    between atoms: _305  and  _307
REMARK  121  A    between atoms: _307  and  _308
REMARK  122  A    between atoms: _307  and  _310
REMARK  123  A    between atoms: _310  and  _311
REMARK  124  A    between atoms: _311  and  _312
REMARK  125  A    between atoms: _315  and  _317
REMARK  126  A    between atoms: _317  and  _318
REMARK  127  A    between atoms: _317  and  _320
REMARK  128  A    between atoms: _320  and  _321
REMARK  129  A    between atoms: _326  and  _327
REMARK  130  A    between atoms: _329  and  _331
REMARK  131  A    between atoms: _331  and  _332
REMARK  132  A    between atoms: _331  and  _334
REMARK  133  A    between atoms: _334  and  _335
REMARK  134  A    between atoms: _340  and  _342
REMARK  135  A    between atoms: _342  and  _343
REMARK  136  A    between atoms: _342  and  _345
REMARK  137  A    between atoms: _345  and  _346
REMARK  138  A    between atoms: _349  and  _351
REMARK  139  A    between atoms: _351  and  _352
REMARK  140  A    between atoms: _351  and  _354
REMARK  141  A    between atoms: _354  and  _355
REMARK  142  A    between atoms: _360  and  _362
REMARK  143  A    between atoms: _362  and  _363
REMARK  144  A    between atoms: _362  and  _365
REMARK  145  A    between atoms: _365  and  _366
REMARK  146  A    between atoms: _376  and  _378
REMARK  147  A    between atoms: _378  and  _379
REMARK  148  A    between atoms: _378  and  _381
REMARK  149  A    between atoms: _381  and  _382
REMARK  150  A    between atoms: _388  and  _390
REMARK  151  A    between atoms: _390  and  _391
REMARK  152  A    between atoms: _390  and  _393
REMARK  153  A    between atoms: _393  and  _394
REMARK  154  A    between atoms: _397  and  _399
REMARK  155  A    between atoms: _399  and  _400
REMARK  156  A    between atoms: _399  and  _402
REMARK  157  A    between atoms: _402  and  _403
REMARK  158  A    between atoms: _406  and  _408
REMARK  159  A    between atoms: _408  and  _409
REMARK  160  A    between atoms: _408  and  _411
REMARK  161  A    between atoms: _411  and  _412
REMARK  162  A    between atoms: _412  and  _413
REMARK  163  A    between atoms: _413  and  _414
REMARK  164  A    between atoms: _423  and  _425
REMARK  165  A    between atoms: _425  and  _426
REMARK  166  A    between atoms: _425  and  _428
REMARK  167  A    between atoms: _428  and  _429
REMARK  168  A    between atoms: _434  and  _436
REMARK  169  A    between atoms: _436  and  _437
REMARK  170  A    between atoms: _436  and  _439
REMARK  171  A    between atoms: _439  and  _440
REMARK  172  A    between atoms: _441  and  _442
REMARK  173  A    between atoms: _451  and  _453
REMARK  174  A    between atoms: _453  and  _454
REMARK  175  A    between atoms: _457  and  _459
REMARK  176  A    between atoms: _459  and  _460
REMARK  177  A    between atoms: _462  and  _464
REMARK  178  A    between atoms: _464  and  _465
REMARK  179  A    between atoms: _464  and  _467
REMARK  180  A    between atoms: _467  and  _468
REMARK  181  A    between atoms: _478  and  _480
REMARK  182  A    between atoms: _480  and  _481
REMARK  183  A    between atoms: _480  and  _483
REMARK  184  A    between atoms: _483  and  _484
REMARK  185  A    between atoms: _485  and  _487
REMARK  186  A    between atoms: _487  and  _488
REMARK  187  A    between atoms: _491  and  _493
REMARK  188  A    between atoms: _493  and  _494
REMARK  189  A    between atoms: _493  and  _496
REMARK  190  A    between atoms: _496  and  _497
REMARK  191  A    between atoms: _500  and  _502
REMARK  192  A    between atoms: _502  and  _503
REMARK  193  A    between atoms: _502  and  _505
REMARK  194  A    between atoms: _505  and  _506
REMARK  195  A    between atoms: _511  and  _512
REMARK  196  A    between atoms: _514  and  _516
REMARK  197  A    between atoms: _516  and  _517
REMARK  198  A    between atoms: _516  and  _519
REMARK  199  A    between atoms: _519  and  _520
REMARK  200  A    between atoms: _522  and  _524
REMARK  201  A    between atoms: _524  and  _525
REMARK  202  A    between atoms: _524  and  _527
REMARK  203  A    between atoms: _527  and  _528
REMARK  204  A    between atoms: _534  and  _536
REMARK  205  A    between atoms: _536  and  _537
REMARK  206  A    between atoms: _536  and  _539
REMARK  207  A    between atoms: _539  and  _540
REMARK  208  A    between atoms: _543  and  _545
REMARK  209  A    between atoms: _545  and  _546
REMARK  210  A    between atoms: _545  and  _548
REMARK  211  A    between atoms: _548  and  _549
REMARK  212  A    between atoms: _551  and  _553
REMARK  213  A    between atoms: _553  and  _554
REMARK  214  A    between atoms: _553  and  _556
REMARK  215  A    between atoms: _556  and  _557
REMARK  216  A    between atoms: _562  and  _564
REMARK  217  A    between atoms: _564  and  _565
REMARK  218  A    between atoms: _564  and  _567
REMARK  219  A    between atoms: _567  and  _568
REMARK  220  A    between atoms: _571  and  _573
REMARK  221  A    between atoms: _573  and  _574
REMARK  222  A    between atoms: _573  and  _576
REMARK  223  A    between atoms: _576  and  _577
REMARK  224  A    between atoms: _582  and  _583
REMARK  225  A    between atoms: _585  and  _587
REMARK  226  A    between atoms: _587  and  _588
REMARK  227  A    between atoms: _587  and  _590
REMARK  228  A    between atoms: _590  and  _591
REMARK  229  A    between atoms: _596  and  _597
REMARK  230  A    between atoms: _599  and  _601
REMARK  231  A    between atoms: _601  and  _602
REMARK  232  A    between atoms: _601  and  _604
REMARK  233  A    between atoms: _607  and  _609
REMARK  234  A    between atoms: _609  and  _610
REMARK  235  A    between atoms: _609  and  _612
REMARK  236  A    between atoms: _612  and  _613
REMARK  237  A    between atoms: _618  and  _620
REMARK  238  A    between atoms: _620  and  _621
REMARK  239  A    between atoms: _624  and  _626
REMARK  240  A    between atoms: _626  and  _627
REMARK  241  A    between atoms: _626  and  _629
REMARK  242  A    between atoms: _629  and  _630
REMARK  243  A    between atoms: _630  and  _631
REMARK  244  A    between atoms: _631  and  _632
REMARK  245  A    between atoms: _641  and  _643
REMARK  246  A    between atoms: _643  and  _644
REMARK  247  A    between atoms: _643  and  _646
REMARK  248  A    between atoms: _646  and  _647
REMARK  249  A    between atoms: _650  and  _652
REMARK  250  A    between atoms: _652  and  _653
REMARK  251  A    between atoms: _652  and  _655
REMARK  252  A    between atoms: _655  and  _656
REMARK  253  A    between atoms: _659  and  _661
REMARK  254  A    between atoms: _661  and  _662
REMARK  255  A    between atoms: _661  and  _664
REMARK  256  A    between atoms: _664  and  _665
REMARK                            x       y       z     vdW  Elec       q    Type
REMARK                         _______ _______ _______ _____ _____    ______ ____
ROOT
ATOM      1  CA  CYS A   5       3.196  14.018  16.087  0.00  0.00    +0.160 C 
ENDROOT
BRANCH   1   2
ATOM      2  N   CYS A   5       3.280  15.145  16.970  0.00  0.00    -0.296 N 
ATOM      3  C   TRP A   4       2.833  15.174  18.227  0.00  0.00    +0.241 C 
ATOM      4  O   TRP A   4       2.175  14.256  18.722  0.00  0.00    -0.273 OA
ATOM      5  H   CYS A   5       3.725  16.009  16.601  0.00  0.00    +0.150 HD
BRANCH   3   6
ATOM      6  CA  TRP A   4       3.112  16.424  19.062  0.00  0.00    +0.153 C 
BRANCH   6   7
ATOM      7  N   TRP A   4       1.806  16.809  19.656  0.00  0.00    -0.297 N 
ATOM      8  H   TRP A   4       1.298  16.183  20.313  0.00  0.00    +0.150 HD
ATOM      9  C   GLY A   3       1.324  17.986  19.307  0.00  0.00    +0.243 C 
ATOM     10  O   GLY A   3       1.927  18.840  18.626  0.00  0.00    -0.273 OA
BRANCH   9  11
ATOM     11  CA  GLY A   3      -0.063  18.341  19.859  0.00  0.00    +0.176 C 
BRANCH  11  12
ATOM     12  N   GLY A   3       0.053  19.630  20.517  0.00  0.00    -0.295 N 
ATOM     13  C   ALA A   2      -0.752  19.910  21.562  0.00  0.00    +0.241 C 
ATOM     14  O   ALA A   2      -1.615  19.155  21.998  0.00  0.00    -0.273 OA
ATOM     15  H   GLY A   3       0.749  20.329  20.186  0.00  0.00    +0.150 HD
BRANCH  13  16
ATOM     16  CA  ALA A   2      -0.481  21.270  22.169  0.00  0.00    +0.149 C 
ATOM     17  CB  ALA A   2       0.744  21.173  23.089  0.00  0.00    +0.031 C 
BRANCH  16  18
ATOM     18  N   ALA A   2      -1.629  21.775  22.919  0.00  0.00    -0.297 N 
ATOM     19  H   ALA A   2      -2.343  21.127  23.309  0.00  0.00    +0.150 HD
ATOM     20  C   ARG A   1      -1.730  23.085  23.086  0.00  0.00    +0.239 C 
ATOM     21  O   ARG A   1      -0.887  23.886  22.658  0.00  0.00    -0.274 OA
BRANCH  20  22
ATOM     22  CA  ARG A   1      -2.917  23.569  23.934  0.00  0.00    +0.149 C 
BRANCH  22  23
ATOM     23  N   ARG A   1      -2.484  24.808  24.570  0.00  0.00    -0.238 NA
ATOM     24  H   ARG A   1      -2.926  25.717  24.326  0.00  0.00    +0.142 HD
ENDBRANCH  22  23
BRANCH  22  25
ATOM     25  CB  ARG A   1      -4.191  23.616  23.111  0.00  0.00    +0.055 C 
BRANCH  25  26
ATOM     26  CG  ARG A   1      -4.087  24.421  21.867  0.00  0.00    +0.012 C 
ATOM     27  CD  ARG A   1      -4.048  23.781  20.525  0.00  0.00    +0.143 C 
BRANCH  27  28
ATOM     28  NE  ARG A   1      -3.910  22.364  20.313  0.00  0.00    -0.243 N 
ATOM     29  HE  ARG A   1      -4.452  21.690  20.890  0.00  0.00    +0.265 HD
ATOM     30  CZ  ARG A   1      -3.065  21.921  19.353  0.00  0.00    +0.346 C 
ATOM     31  NH2 ARG A   1      -2.952  20.616  19.189  0.00  0.00    -0.292 N 
ATOM     32 HH21 ARG A   1      -3.502  19.967  19.787  0.00  0.00    +0.255 HD
ATOM     33 HH22 ARG A   1      -2.313  20.237  18.462  0.00  0.00    +0.255 HD
ATOM     34  NH1 ARG A   1      -2.378  22.766  18.598  0.00  0.00    -0.292 N 
ATOM     35 HH11 ARG A   1      -2.483  23.791  18.738  0.00  0.00    +0.255 HD
ATOM     36 HH12 ARG A   1      -1.734  22.404  17.866  0.00  0.00    +0.255 HD
ENDBRANCH  27  28
ENDBRANCH  25  26
ENDBRANCH  22  25
ENDBRANCH  20  22
ENDBRANCH  16  18
ENDBRANCH  13  16
ENDBRANCH  11  12
ENDBRANCH   9  11
ENDBRANCH   6   7
BRANCH   6  37
ATOM     37  CB  TRP A   4       4.211  16.192  20.118  0.00  0.00    +0.057 C 
BRANCH  37  38
ATOM     38  CG  TRP A   4       5.549  15.865  19.469  0.00  0.00    -0.002 A 
ATOM     39  CD1 TRP A   4       6.110  14.615  19.338  0.00  0.00    +0.068 A 
ATOM     40  NE1 TRP A   4       7.349  14.712  18.702  0.00  0.00    -0.352 N 
ATOM     41  HE1 TRP A   4       7.986  13.922  18.476  0.00  0.00    +0.166 HD
ATOM     42  CE2 TRP A   4       7.575  16.034  18.429  0.00  0.00    +0.056 A 
ATOM     43  CZ2 TRP A   4       8.686  16.630  17.826  0.00  0.00    +0.017 A 
ATOM     44  CH2 TRP A   4       8.660  18.001  17.703  0.00  0.00    +0.001 A 
ATOM     45  CZ3 TRP A   4       7.585  18.773  18.170  0.00  0.00    +0.000 A 
ATOM     46  CE3 TRP A   4       6.499  18.177  18.801  0.00  0.00    +0.001 A 
ATOM     47  CD2 TRP A   4       6.486  16.778  18.902  0.00  0.00    +0.013 A 
ENDBRANCH  37  38
ENDBRANCH   6  37
ENDBRANCH   3   6
ENDBRANCH   1   2
BRANCH   1  48
ATOM     48  C   CYS A   5       4.595  13.451  15.809  0.00  0.00    +0.242 C 
ATOM     49  N   ALA A   6       4.718  12.145  15.791  0.00  0.00    -0.297 N 
ATOM     50  H   ALA A   6       3.877  11.546  15.917  0.00  0.00    +0.150 HD
ATOM     51  O   CYS A   5       5.543  14.234  15.596  0.00  0.00    -0.273 OA
BRANCH  49  52
ATOM     52  CA  ALA A   6       6.029  11.523  15.595  0.00  0.00    +0.149 C 
ATOM     53  CB  ALA A   6       5.917  10.007  15.568  0.00  0.00    +0.031 C 
BRANCH  52  54
ATOM     54  C   ALA A   6       6.688  11.963  14.280  0.00  0.00    +0.241 C 
ATOM     55  N   ASP A   7       8.022  12.047  14.318  0.00  0.00    -0.297 N 
ATOM     56  H   ASP A   7       8.514  11.905  15.223  0.00  0.00    +0.150 HD
ATOM     57  O   ALA A   6       5.996  12.131  13.280  0.00  0.00    -0.273 OA
BRANCH  55  58
ATOM     58  CA  ASP A   7       8.808  12.335  13.112  0.00  0.00    +0.160 C 
BRANCH  58  59
ATOM     59  C   ASP A   7       9.396  11.032  12.574  0.00  0.00    +0.241 C 
ATOM     60  N   TYR A   8       9.590  10.078  13.468  0.00  0.00    -0.298 N 
ATOM     61  H   TYR A   8       9.444  10.300  14.473  0.00  0.00    +0.150 HD
ATOM     62  O   ASP A   7       9.637  10.908  11.361  0.00  0.00    -0.273 OA
BRANCH  60  63
ATOM     63  CA  TYR A   8      10.002   8.722  13.103  0.00  0.00    +0.141 C 
BRANCH  63  64
ATOM     64  C   TYR A   8       9.283   7.814  14.101  0.00  0.00    +0.227 C 
ATOM     65  O   TYR A   8       9.023   8.236  15.227  0.00  0.00    -0.286 OA
ENDBRANCH  63  64
BRANCH  63  66
ATOM     66  CB  TYR A   8      11.503   8.580  13.044  0.00  0.00    +0.054 C 
BRANCH  66  67
ATOM     67  CG  TYR A   8      12.220   8.966  14.319  0.00  0.00    -0.020 A 
ATOM     68  CD2 TYR A   8      12.601   8.022  15.256  0.00  0.00    -0.001 A 
ATOM     69  CE2 TYR A   8      13.267   8.391  16.426  0.00  0.00    +0.036 A 
ATOM     70  CZ  TYR A   8      13.580   9.711  16.625  0.00  0.00    +0.134 A 
ATOM     71  CE1 TYR A   8      13.192  10.678  15.722  0.00  0.00    +0.036 A 
ATOM     72  CD1 TYR A   8      12.520  10.300  14.570  0.00  0.00    -0.001 A 
BRANCH  70  73
ATOM     73  OH  TYR A   8      14.237  10.101  17.775  0.00  0.00    -0.506 OA
ATOM     74  HH  TYR A   8      14.449   9.302  18.320  0.00  0.00    +0.292 HD
ENDBRANCH  70  73
ENDBRANCH  66  67
ENDBRANCH  63  66
ENDBRANCH  60  63
ENDBRANCH  58  59
BRANCH  58  75
ATOM     75  CB  ASP A   7       9.934  13.323  13.446  0.00  0.00    +0.143 C 
BRANCH  75  76
ATOM     76  CG  ASP A   7       9.400  14.652  13.943  0.00  0.00    +0.367 C 
ATOM     77  OD2 ASP A   7       9.981  15.219  14.887  0.00  0.00    -0.246 OA
ATOM     78  OD1 ASP A   7       8.375  15.146  13.390  0.00  0.00    -0.246 OA
ENDBRANCH  75  76
ENDBRANCH  58  75
ENDBRANCH  55  58
ENDBRANCH  52  54
ENDBRANCH  49  52
ENDBRANCH   1  48
BRANCH   1  79
ATOM     79  CB  CYS A   5       2.603  14.383  14.719  0.00  0.00    +0.098 C 
BRANCH  79  80
ATOM     80  SG  CYS A   5       0.867  14.882  14.867  0.00  0.00    -0.080 S 
BRANCH  80  81
ATOM     81  SG  GLY A   3      -0.109  13.119  15.164  0.00  0.00    -0.080 S 
BRANCH  81  82
ATOM     82  CB  GLY A   3      -0.576  13.128  16.902  0.00  0.00    +0.098 C 
BRANCH  82  83
ATOM     83  CA  GLY A   3       0.159  12.117  17.804  0.00  0.00    +0.160 C 
BRANCH  83  84
ATOM     84  C   GLY A   3      -0.548  12.145  19.158  0.00  0.00    +0.242 C 
ATOM     85  N   TRP A   4      -0.133  13.015  20.038  0.00  0.00    -0.295 N 
ATOM     86  H   TRP A   4       0.682  13.620  19.809  0.00  0.00    +0.150 HD
ATOM     87  O   GLY A   3      -1.510  11.383  19.312  0.00  0.00    -0.273 OA
BRANCH  85  88
ATOM     88  CA  TRP A   4      -0.783  13.160  21.334  0.00  0.00    +0.176 C 
BRANCH  88  89
ATOM     89  C   TRP A   4      -1.232  14.603  21.518  0.00  0.00    +0.243 C 
ATOM     90  N   CYS A   5      -2.493  14.744  21.906  0.00  0.00    -0.297 N 
ATOM     91  H   CYS A   5      -3.091  13.896  21.982  0.00  0.00    +0.150 HD
ATOM     92  O   TRP A   4      -0.446  15.519  21.253  0.00  0.00    -0.273 OA
BRANCH  90  93
ATOM     93  CA  CYS A   5      -3.075  16.048  22.231  0.00  0.00    +0.153 C 
BRANCH  93  94
ATOM     94  C   CYS A   5      -2.891  16.252  23.735  0.00  0.00    +0.241 C 
ATOM     95  O   CYS A   5      -3.176  15.352  24.555  0.00  0.00    -0.273 OA
ATOM     96  N   ALA A   6      -2.355  17.397  24.132  0.00  0.00    -0.298 N 
ATOM     97  H   ALA A   6      -2.112  18.131  23.437  0.00  0.00    +0.150 HD
BRANCH  96  98
ATOM     98  CA  ALA A   6      -2.108  17.619  25.554  0.00  0.00    +0.141 C 
BRANCH  98  99
ATOM     99  C   ALA A   6      -2.119  19.098  25.873  0.00  0.00    +0.227 C 
ATOM    100  O   ALA A   6      -2.027  19.906  24.949  0.00  0.00    -0.286 OA
ENDBRANCH  98  99
BRANCH  98 101
ATOM    101  CB  ALA A   6      -0.715  17.057  25.911  0.00  0.00    +0.054 C 
BRANCH 101 102
ATOM    102  CG  ALA A   6       0.508  17.558  25.194  0.00  0.00    -0.020 A 
ATOM    103  CD2 ALA A   6       1.416  18.419  25.811  0.00  0.00    -0.001 A 
ATOM    104  CE2 ALA A   6       2.583  18.844  25.172  0.00  0.00    +0.036 A 
ATOM    105  CZ  ALA A   6       2.819  18.426  23.872  0.00  0.00    +0.134 A 
ATOM    106  CE1 ALA A   6       1.933  17.591  23.233  0.00  0.00    +0.036 A 
ATOM    107  CD1 ALA A   6       0.795  17.143  23.881  0.00  0.00    -0.001 A 
BRANCH 105 108
ATOM    108  OH  ALA A   6       3.944  18.857  23.207  0.00  0.00    -0.506 OA
ATOM    109  HH  ALA A   6       4.472  19.446  23.802  0.00  0.00    +0.292 HD
ENDBRANCH 105 108
ENDBRANCH 101 102
ENDBRANCH  98 101
ENDBRANCH  96  98
ENDBRANCH  93  94
BRANCH  93 110
ATOM    110  CB  CYS A   5      -4.564  16.041  21.876  0.00  0.00    +0.055 C 
BRANCH 110 111
ATOM    111  CG  CYS A   5      -5.191  17.420  21.862  0.00  0.00    -0.020 A 
ATOM    112  CD2 CYS A   5      -5.384  18.207  22.987  0.00  0.00    -0.001 A 
ATOM    113  CE2 CYS A   5      -5.994  19.458  22.900  0.00  0.00    +0.036 A 
ATOM    114  CZ  CYS A   5      -6.427  19.910  21.661  0.00  0.00    +0.134 A 
ATOM    115  CE1 CYS A   5      -6.242  19.136  20.534  0.00  0.00    +0.036 A 
ATOM    116  CD1 CYS A   5      -5.637  17.906  20.644  0.00  0.00    -0.001 A 
BRANCH 114 117
ATOM    117  OH  CYS A   5      -7.027  21.124  21.464  0.00  0.00    -0.506 OA
ATOM    118  HH  CYS A   5      -7.249  21.230  20.505  0.00  0.00    +0.292 HD
ENDBRANCH 114 117
ENDBRANCH 110 111
ENDBRANCH  93 110
ENDBRANCH  90  93
ENDBRANCH  88  89
BRANCH  88 119
ATOM    119  CB  TRP A   4       0.157  12.766  22.491  0.00  0.00    +0.137 C 
ATOM    120  CG2 TRP A   4      -0.558  12.871  23.844  0.00  0.00    +0.034 C 
BRANCH 119 121
ATOM    121  OG1 TRP A   4       0.538  11.406  22.279  0.00  0.00    -0.382 OA
ATOM    122  HG1 TRP A   4       1.145  11.117  23.006  0.00  0.00    +0.210 HD
ENDBRANCH 119 121
ENDBRANCH  88 119
ENDBRANCH  85  88
ENDBRANCH  83  84
BRANCH  83 124
ATOM    123  C   ALA A   2       1.190  10.209  16.699  0.00  0.00    +0.241 C 
ATOM    124  N   GLY A   3       0.095  10.775  17.257  0.00  0.00    -0.296 N 
ATOM    125  H   GLY A   3      -0.799  10.244  17.294  0.00  0.00    +0.150 HD
ATOM    126  O   ALA A   2       2.286  10.805  16.577  0.00  0.00    -0.273 OA
BRANCH 123 127
ATOM    127  CA  ALA A   2       1.031   8.804  16.185  0.00  0.00    +0.149 C 
BRANCH 127 130
ATOM    128  C   ARG A   1      -1.155   8.599  15.213  0.00  0.00    +0.239 C 
ATOM    129  O   ARG A   1      -1.673   8.566  16.349  0.00  0.00    -0.274 OA
ATOM    130  N   ALA A   2       0.159   8.735  15.008  0.00  0.00    -0.297 N 
ATOM    131  H   ALA A   2       0.550   8.790  14.046  0.00  0.00    +0.150 HD
BRANCH 128 132
ATOM    132  CA  ARG A   1      -2.069   8.483  14.013  0.00  0.00    +0.149 C 
BRANCH 132 133
ATOM    133  N   ARG A   1      -2.973   7.323  14.196  0.00  0.00    -0.238 NA
ATOM    134  H   ARG A   1      -3.278   7.043  15.150  0.00  0.00    +0.142 HD
ENDBRANCH 132 133
BRANCH 132 135
ATOM    135  CB  ARG A   1      -2.959   9.713  13.879  0.00  0.00    +0.053 C 
BRANCH 135 136
ATOM    136  CG  ARG A   1      -2.408  10.971  13.265  0.00  0.00    -0.020 A 
ATOM    137  CD2 ARG A   1      -3.148  12.151  13.426  0.00  0.00    -0.001 A 
ATOM    138  CE2 ARG A   1      -2.730  13.355  12.883  0.00  0.00    +0.036 A 
ATOM    139  CZ  ARG A   1      -1.572  13.383  12.137  0.00  0.00    +0.134 A 
ATOM    140  CE1 ARG A   1      -0.827  12.241  11.968  0.00  0.00    +0.036 A 
ATOM    141  CD1 ARG A   1      -1.241  11.033  12.509  0.00  0.00    -0.001 A 
BRANCH 139 142
ATOM    142  OH  ARG A   1      -1.151  14.573  11.567  0.00  0.00    -0.506 OA
ATOM    143  HH  ARG A   1      -0.309  14.419  11.069  0.00  0.00    +0.292 HD
ENDBRANCH 139 142
ENDBRANCH 135 136
ENDBRANCH 132 135
ENDBRANCH 128 132
ENDBRANCH 127 130
BRANCH 127 144
ATOM    144  CB  ALA A   2       2.404   8.166  15.846  0.00  0.00    +0.029 C 
BRANCH 144 145
ATOM    145  CG  ALA A   2       2.312   6.629  15.802  0.00  0.00    +0.002 C 
ATOM    146  CD2 ALA A   2       2.091   6.057  17.187  0.00  0.00    +0.000 C 
ATOM    147  CD1 ALA A   2       3.545   6.074  15.094  0.00  0.00    +0.000 C 
ENDBRANCH 144 145
ENDBRANCH 127 144
ENDBRANCH 123 127
ENDBRANCH  83 124
ENDBRANCH  82  83
ENDBRANCH  81  82
ENDBRANCH  80  81
ENDBRANCH  79  80
ENDBRANCH   1  79
TORSDOF 56
REMARK  Name = ../refined-set-2016/1b6h/1b6h_pocket.pdb
REMARK  256 active torsions:
REMARK  status: ('A' for Active; 'I' for Inactive)
REMARK    1  A    between atoms: _1  and  _3
REMARK    2  A    between atoms: _3  and  _4
REMARK    3  A    between atoms: _3  and  _6
REMARK    4  A    between atoms: _6  and  _7
REMARK    5  A    between atoms: _12  and  _14
REMARK    6  A    between atoms: _14  and  _15
REMARK    7  A    between atoms: _17  and  _19
REMARK    8  A    between atoms: _19  and  _20
REMARK    9  A    between atoms: _19  and  _22
REMARK   10  A    between atoms: _22  and  _23
REMARK   11  A    between atoms: _23  and  _24
REMARK   12  A    between atoms: _29  and  _31
REMARK   13  A    between atoms: _31  and  _32
REMARK   14  A    between atoms: _31  and  _34
REMARK   15  A    between atoms: _34  and  _35
REMARK   16  A    between atoms: _38  and  _40
REMARK   17  A    between atoms: _40  and  _41
REMARK   18  A    between atoms: _40  and  _43
REMARK   19  A    between atoms: _43  and  _44
REMARK   20  A    between atoms: _44  and  _45
REMARK   21  A    between atoms: _48  and  _50
REMARK   22  A    between atoms: _50  and  _51
REMARK   23  A    between atoms: _53  and  _55
REMARK   24  A    between atoms: _55  and  _56
REMARK   25  A    between atoms: _55  and  _58
REMARK   26  A    between atoms: _62  and  _63
REMARK   27  A    between atoms: _68  and  _70
REMARK   28  A    between atoms: _70  and  _71
REMARK   29  A    between atoms: _70  and  _73
REMARK   30  A    between atoms: _73  and  _74
REMARK   31  A    between atoms: _74  and  _75
REMARK   32  A    between atoms: _78  and  _80
REMARK   33  A    between atoms: _80  and  _81
REMARK   34  A    between atoms: _80  and  _83
REMARK   35  A    between atoms: _83  and  _84
REMARK   36  A    between atoms: _86  and  _88
REMARK   37  A    between atoms: _88  and  _89
REMARK   38  A    between atoms: _88  and  _91
REMARK   39  A    between atoms: _91  and  _92
REMARK   40  A    between atoms: _97  and  _99
REMARK   41  A    between atoms: _99  and  _100
REMARK   42  A    between atoms: _99  and  _102
REMARK   43  A    between atoms: _102  and  _103
REMARK   44  A    between atoms: _103  and  _104
REMARK   45  A    between atoms: _104  and  _105
REMARK   46  A    between atoms: _115  and  _116
REMARK   47  A    between atoms: _121  and  _123
REMARK   48  A    between atoms: _123  and  _124
REMARK   49  A    between atoms: _123  and  _126
REMARK   50  A    between atoms: _126  and  _127
REMARK   51  A    between atoms: _132  and  _133
REMARK   52  A    between atoms: _135  and  _137
REMARK   53  A    between atoms: _137  and  _138
REMARK   54  A    between atoms: _137  and  _140
REMARK   55  A    between atoms: _140  and  _141
REMARK   56  A    between atoms: _146  and  _147
REMARK   57  A    between atoms: _149  and  _151
REMARK   58  A    between atoms: _151  and  _152
REMARK   59  A    between atoms: _151  and  _154
REMARK   60  A    between atoms: _157  and  _159
REMARK   61  A    between atoms: _159  and  _160
REMARK   62  A    between atoms: _159  and  _162
REMARK   63  A    between atoms: _162  and  _163
REMARK   64  A    between atoms: _169  and  _170
REMARK   65  A    between atoms: _175  and  _177
REMARK   66  A    between atoms: _177  and  _178
REMARK   67  A    between atoms: _177  and  _180
REMARK   68  A    between atoms: _180  and  _181
REMARK   69  A    between atoms: _183  and  _185
REMARK   70  A    between atoms: _185  and  _186
REMARK   71  A    between atoms: _185  and  _188
REMARK   72  A    between atoms: _188  and  _189
REMARK   73  A    between atoms: _189  and  _190
REMARK   74  A    between atoms: _193  and  _195
REMARK   75  A    between atoms: _195  and  _196
REMARK   76  A    between atoms: _195  and  _198
REMARK   77  A    between atoms: _198  and  _199
REMARK   78  A    between atoms: _204  and  _205
REMARK   79  A    between atoms: _207  and  _209
REMARK   80  A    between atoms: _209  and  _210
REMARK   81  A    between atoms: _209  and  _212
REMARK   82  A    between atoms: _212  and  _213
REMARK   83  A    between atoms: _218  and  _220
REMARK   84  A    between atoms: _220  and  _221
REMARK   85  A    between atoms: _220  and  _223
REMARK   86  A    between atoms: _223  and  _224
REMARK   87  A    between atoms: _229  and  _231
REMARK   88  A    between atoms: _231  and  _232
REMARK   89  A    between atoms: _231  and  _234
REMARK   90  A    between atoms: _234  and  _235
REMARK   91  A    between atoms: _235  and  _236
REMARK   92  A    between atoms: _238  and  _240
REMARK   93  A    between atoms: _240  and  _241
REMARK   94  A    between atoms: _240  and  _243
REMARK   95  A    between atoms: _243  and  _244
REMARK   96  A    between atoms: _249  and  _250
REMARK   97  A    between atoms: _252  and  _254
REMARK   98  A    between atoms: _254  and  _255
REMARK   99  A    between atoms: _254  and  _257
REMARK  100  A    between atoms: _257  and  _258
REMARK  101  A    between atoms: _261  and  _263
REMARK  102  A    between atoms: _263  and  _264
REMARK  103  A    between atoms: _263  and  _266
REMARK  104  A    between atoms: _266  and  _267
REMARK  105  A    between atoms: _267  and  _484
REMARK  106  A    between atoms: _268  and  _270
REMARK  107  A    between atoms: _270  and  _271
REMARK  108  A    between atoms: _270  and  _273
REMARK  109  A    between atoms: _273  and  _274
REMARK  110  A    between atoms: _277  and  _279
REMARK  111  A    between atoms: _279  and  _280
REMARK  112  A    between atoms: _279  and  _282
REMARK  113  A    between atoms: _282  and  _283
REMARK  114  A    between atoms: _288  and  _289
REMARK  115  A    between atoms: _291  and  _293
REMARK  116  A    between atoms: _293  and  _294
REMARK  117  A    between atoms: _293  and  _296
REMARK  118  A    between atoms: _296  and  _297
REMARK  119  A    between atoms: _302  and  _303
REMARK  120  A    between atoms: _305  and  _307
REMARK  121  A    between atoms: _307  and  _308
REMARK  122  A    between atoms: _307  and  _310
REMARK  123  A    between atoms: _310  and  _311
REMARK  124  A    between atoms: _311  and  _312
REMARK  125  A    between atoms: _315  and  _317
REMARK  126  A    between atoms: _317  and  _318
REMARK  127  A    between atoms: _317  and  _320
REMARK  128  A    between atoms: _320  and  _321
REMARK  129  A    between atoms: _326  and  _327
REMARK  130  A    between atoms: _329  and  _331
REMARK  131  A    between atoms: _331  and  _332
REMARK  132  A    between atoms: _331  and  _334
REMARK  133  A    between atoms: _334  and  _335
REMARK  134  A    between atoms: _340  and  _342
REMARK  135  A    between atoms: _342  and  _343
REMARK  136  A    between atoms: _342  and  _345
REMARK  137  A    between atoms: _345  and  _346
REMARK  138  A    between atoms: _349  and  _351
REMARK  139  A    between atoms: _351  and  _352
REMARK  140  A    between atoms: _351  and  _354
REMARK  141  A    between atoms: _354  and  _355
REMARK  142  A    between atoms: _360  and  _362
REMARK  143  A    between atoms: _362  and  _363
REMARK  144  A    between atoms: _362  and  _365
REMARK  145  A    between atoms: _365  and  _366
REMARK  146  A    between atoms: _376  and  _378
REMARK  147  A    between atoms: _378  and  _379
REMARK  148  A    between atoms: _378  and  _381
REMARK  149  A    between atoms: _381  and  _382
REMARK  150  A    between atoms: _388  and  _390
REMARK  151  A    between atoms: _390  and  _391
REMARK  152  A    between atoms: _390  and  _393
REMARK  153  A    between atoms: _393  and  _394
REMARK  154  A    between atoms: _397  and  _399
REMARK  155  A    between atoms: _399  and  _400
REMARK  156  A    between atoms: _399  and  _402
REMARK  157  A    between atoms: _402  and  _403
REMARK  158  A    between atoms: _406  and  _408
REMARK  159  A    between atoms: _408  and  _409
REMARK  160  A    between atoms: _408  and  _411
REMARK  161  A    between atoms: _411  and  _412
REMARK  162  A    between atoms: _412  and  _413
REMARK  163  A    between atoms: _413  and  _414
REMARK  164  A    between atoms: _423  and  _425
REMARK  165  A    between atoms: _425  and  _426
REMARK  166  A    between atoms: _425  and  _428
REMARK  167  A    between atoms: _428  and  _429
REMARK  168  A    between atoms: _434  and  _436
REMARK  169  A    between atoms: _436  and  _437
REMARK  170  A    between atoms: _436  and  _439
REMARK  171  A    between atoms: _439  and  _440
REMARK  172  A    between atoms: _441  and  _442
REMARK  173  A    between atoms: _451  and  _453
REMARK  174  A    between atoms: _453  and  _454
REMARK  175  A    between atoms: _457  and  _459
REMARK  176  A    between atoms: _459  and  _460
REMARK  177  A    between atoms: _462  and  _464
REMARK  178  A    between atoms: _464  and  _465
REMARK  179  A    between atoms: _464  and  _467
REMARK  180  A    between atoms: _467  and  _468
REMARK  181  A    between atoms: _478  and  _480
REMARK  182  A    between atoms: _480  and  _481
REMARK  183  A    between atoms: _480  and  _483
REMARK  184  A    between atoms: _483  and  _484
REMARK  185  A    between atoms: _485  and  _487
REMARK  186  A    between atoms: _487  and  _488
REMARK  187  A    between atoms: _491  and  _493
REMARK  188  A    between atoms: _493  and  _494
REMARK  189  A    between atoms: _493  and  _496
REMARK  190  A    between atoms: _496  and  _497
REMARK  191  A    between atoms: _500  and  _502
REMARK  192  A    between atoms: _502  and  _503
REMARK  193  A    between atoms: _502  and  _505
REMARK  194  A    between atoms: _505  and  _506
REMARK  195  A    between atoms: _511  and  _512
REMARK  196  A    between atoms: _514  and  _516
REMARK  197  A    between atoms: _516  and  _517
REMARK  198  A    between atoms: _516  and  _519
REMARK  199  A    between atoms: _519  and  _520
REMARK  200  A    between atoms: _522  and  _524
REMARK  201  A    between atoms: _524  and  _525
REMARK  202  A    between atoms: _524  and  _527
REMARK  203  A    between atoms: _527  and  _528
REMARK  204  A    between atoms: _534  and  _536
REMARK  205  A    between atoms: _536  and  _537
REMARK  206  A    between atoms: _536  and  _539
REMARK  207  A    between atoms: _539  and  _540
REMARK  208  A    between atoms: _543  and  _545
REMARK  209  A    between atoms: _545  and  _546
REMARK  210  A    between atoms: _545  and  _548
REMARK  211  A    between atoms: _548  and  _549
REMARK  212  A    between atoms: _551  and  _553
REMARK  213  A    between atoms: _553  and  _554
REMARK  214  A    between atoms: _553  and  _556
REMARK  215  A    between atoms: _556  and  _557
REMARK  216  A    between atoms: _562  and  _564
REMARK  217  A    between atoms: _564  and  _565
REMARK  218  A    between atoms: _564  and  _567
REMARK  219  A    between atoms: _567  and  _568
REMARK  220  A    between atoms: _571  and  _573
REMARK  221  A    between atoms: _573  and  _574
REMARK  222  A    between atoms: _573  and  _576
REMARK  223  A    between atoms: _576  and  _577
REMARK  224  A    between atoms: _582  and  _583
REMARK  225  A    between atoms: _585  and  _587
REMARK  226  A    between atoms: _587  and  _588
REMARK  227  A    between atoms: _587  and  _590
REMARK  228  A    between atoms: _590  and  _591
REMARK  229  A    between atoms: _596  and  _597
REMARK  230  A    between atoms: _599  and  _601
REMARK  231  A    between atoms: _601  and  _602
REMARK  232  A    between atoms: _601  and  _604
REMARK  233  A    between atoms: _607  and  _609
REMARK  234  A    between atoms: _609  and  _610
REMARK  235  A    between atoms: _609  and  _612
REMARK  236  A    between atoms: _612  and  _613
REMARK  237  A    between atoms: _618  and  _620
REMARK  238  A    between atoms: _620  and  _621
REMARK  239  A    between atoms: _624  and  _626
REMARK  240  A    between atoms: _626  and  _627
REMARK  241  A    between atoms: _626  and  _629
REMARK  242  A    between atoms: _629  and  _630
REMARK  243  A    between atoms: _630  and  _631
REMARK  244  A    between atoms: _631  and  _632
REMARK  245  A    between atoms: _641  and  _643
REMARK  246  A    between atoms: _643  and  _644
REMARK  247  A    between atoms: _643  and  _646
REMARK  248  A    between atoms: _646  and  _647
REMARK  249  A    between atoms: _650  and  _652
REMARK  250  A    between atoms: _652  and  _653
REMARK  251  A    between atoms: _652  and  _655
REMARK  252  A    between atoms: _655  and  _656
REMARK  253  A    between atoms: _659  and  _661
REMARK  254  A    between atoms: _661  and  _662
REMARK  255  A    between atoms: _661  and  _664
REMARK  256  A    between atoms: _664  and  _665
REMARK                            x       y       z     vdW  Elec       q    Type
REMARK                         _______ _______ _______ _____ _____    ______ ____
ROOT
ATOM      1  CA  GLU A   1       1.605  21.999  27.607  0.00  0.00    +0.134 C 
ENDROOT
BRANCH   1   2
ATOM      2  N   GLU A   1       0.208  21.783  27.302  0.00  0.00    -0.239 NA
ATOM      3  H   GLU A   1      -0.206  22.292  26.495  0.00  0.00    +0.142 HD
ENDBRANCH   1   2
BRANCH   1   4
ATOM      4  C   GLU A   1       1.678  23.043  28.734  0.00  0.00    +0.224 C 
ATOM      5  O   GLU A   1       1.118  24.124  28.576  0.00  0.00    -0.287 OA
ENDBRANCH   1   4
BRANCH   1   6
ATOM      6  CB  GLU A   1       2.333  22.530  26.367  0.00  0.00    +0.037 C 
BRANCH   6   7
ATOM      7  CG  GLU A   1       3.793  22.991  26.569  0.00  0.00    +0.116 C 
BRANCH   7   8
ATOM      8  CD  GLU A   1       4.272  23.476  25.211  0.00  0.00    +0.365 C 
ATOM      9  OE2 GLU A   1       3.967  24.638  24.883  0.00  0.00    -0.246 OA
ATOM     10  OE1 GLU A   1       4.902  22.650  24.515  0.00  0.00    -0.246 OA
ENDBRANCH   7   8
ENDBRANCH   6   7
ENDBRANCH   1   6
TORSDOF 5
REMARK  Name = ../refined-set-2016/1b6h/1b6h_pocket.pdb
REMARK  256 active torsions:
REMARK  status: ('A' for Active; 'I' for Inactive)
REMARK    1  A    between atoms: _1  and  _3
REMARK    2  A    between atoms: _3  and  _4
REMARK    3  A    between atoms: _3  and  _6
REMARK    4  A    between atoms: _6  and  _7
REMARK    5  A    between atoms: _12  and  _14
REMARK    6  A    between atoms: _14  and  _15
REMARK    7  A    between atoms: _17  and  _19
REMARK    8  A    between atoms: _19  and  _20
REMARK    9  A    between atoms: _19  and  _22
REMARK   10  A    between atoms: _22  and  _23
REMARK   11  A    between atoms: _23  and  _24
REMARK   12  A    between atoms: _29  and  _31
REMARK   13  A    between atoms: _31  and  _32
REMARK   14  A    between atoms: _31  and  _34
REMARK   15  A    between atoms: _34  and  _35
REMARK   16  A    between atoms: _38  and  _40
REMARK   17  A    between atoms: _40  and  _41
REMARK   18  A    between atoms: _40  and  _43
REMARK   19  A    between atoms: _43  and  _44
REMARK   20  A    between atoms: _44  and  _45
REMARK   21  A    between atoms: _48  and  _50
REMARK   22  A    between atoms: _50  and  _51
REMARK   23  A    between atoms: _53  and  _55
REMARK   24  A    between atoms: _55  and  _56
REMARK   25  A    between atoms: _55  and  _58
REMARK   26  A    between atoms: _62  and  _63
REMARK   27  A    between atoms: _68  and  _70
REMARK   28  A    between atoms: _70  and  _71
REMARK   29  A    between atoms: _70  and  _73
REMARK   30  A    between atoms: _73  and  _74
REMARK   31  A    between atoms: _74  and  _75
REMARK   32  A    between atoms: _78  and  _80
REMARK   33  A    between atoms: _80  and  _81
REMARK   34  A    between atoms: _80  and  _83
REMARK   35  A    between atoms: _83  and  _84
REMARK   36  A    between atoms: _86  and  _88
REMARK   37  A    between atoms: _88  and  _89
REMARK   38  A    between atoms: _88  and  _91
REMARK   39  A    between atoms: _91  and  _92
REMARK   40  A    between atoms: _97  and  _99
REMARK   41  A    between atoms: _99  and  _100
REMARK   42  A    between atoms: _99  and  _102
REMARK   43  A    between atoms: _102  and  _103
REMARK   44  A    between atoms: _103  and  _104
REMARK   45  A    between atoms: _104  and  _105
REMARK   46  A    between atoms: _115  and  _116
REMARK   47  A    between atoms: _121  and  _123
REMARK   48  A    between atoms: _123  and  _124
REMARK   49  A    between atoms: _123  and  _126
REMARK   50  A    between atoms: _126  and  _127
REMARK   51  A    between atoms: _132  and  _133
REMARK   52  A    between atoms: _135  and  _137
REMARK   53  A    between atoms: _137  and  _138
REMARK   54  A    between atoms: _137  and  _140
REMARK   55  A    between atoms: _140  and  _141
REMARK   56  A    between atoms: _146  and  _147
REMARK   57  A    between atoms: _149  and  _151
REMARK   58  A    between atoms: _151  and  _152
REMARK   59  A    between atoms: _151  and  _154
REMARK   60  A    between atoms: _157  and  _159
REMARK   61  A    between atoms: _159  and  _160
REMARK   62  A    between atoms: _159  and  _162
REMARK   63  A    between atoms: _162  and  _163
REMARK   64  A    between atoms: _169  and  _170
REMARK   65  A    between atoms: _175  and  _177
REMARK   66  A    between atoms: _177  and  _178
REMARK   67  A    between atoms: _177  and  _180
REMARK   68  A    between atoms: _180  and  _181
REMARK   69  A    between atoms: _183  and  _185
REMARK   70  A    between atoms: _185  and  _186
REMARK   71  A    between atoms: _185  and  _188
REMARK   72  A    between atoms: _188  and  _189
REMARK   73  A    between atoms: _189  and  _190
REMARK   74  A    between atoms: _193  and  _195
REMARK   75  A    between atoms: _195  and  _196
REMARK   76  A    between atoms: _195  and  _198
REMARK   77  A    between atoms: _198  and  _199
REMARK   78  A    between atoms: _204  and  _205
REMARK   79  A    between atoms: _207  and  _209
REMARK   80  A    between atoms: _209  and  _210
REMARK   81  A    between atoms: _209  and  _212
REMARK   82  A    between atoms: _212  and  _213
REMARK   83  A    between atoms: _218  and  _220
REMARK   84  A    between atoms: _220  and  _221
REMARK   85  A    between atoms: _220  and  _223
REMARK   86  A    between atoms: _223  and  _224
REMARK   87  A    between atoms: _229  and  _231
REMARK   88  A    between atoms: _231  and  _232
REMARK   89  A    between atoms: _231  and  _234
REMARK   90  A    between atoms: _234  and  _235
REMARK   91  A    between atoms: _235  and  _236
REMARK   92  A    between atoms: _238  and  _240
REMARK   93  A    between atoms: _240  and  _241
REMARK   94  A    between atoms: _240  and  _243
REMARK   95  A    between atoms: _243  and  _244
REMARK   96  A    between atoms: _249  and  _250
REMARK   97  A    between atoms: _252  and  _254
REMARK   98  A    between atoms: _254  and  _255
REMARK   99  A    between atoms: _254  and  _257
REMARK  100  A    between atoms: _257  and  _258
REMARK  101  A    between atoms: _261  and  _263
REMARK  102  A    between atoms: _263  and  _264
REMARK  103  A    between atoms: _263  and  _266
REMARK  104  A    between atoms: _266  and  _267
REMARK  105  A    between atoms: _267  and  _484
REMARK  106  A    between atoms: _268  and  _270
REMARK  107  A    between atoms: _270  and  _271
REMARK  108  A    between atoms: _270  and  _273
REMARK  109  A    between atoms: _273  and  _274
REMARK  110  A    between atoms: _277  and  _279
REMARK  111  A    between atoms: _279  and  _280
REMARK  112  A    between atoms: _279  and  _282
REMARK  113  A    between atoms: _282  and  _283
REMARK  114  A    between atoms: _288  and  _289
REMARK  115  A    between atoms: _291  and  _293
REMARK  116  A    between atoms: _293  and  _294
REMARK  117  A    between atoms: _293  and  _296
REMARK  118  A    between atoms: _296  and  _297
REMARK  119  A    between atoms: _302  and  _303
REMARK  120  A    between atoms: _305  and  _307
REMARK  121  A    between atoms: _307  and  _308
REMARK  122  A    between atoms: _307  and  _310
REMARK  123  A    between atoms: _310  and  _311
REMARK  124  A    between atoms: _311  and  _312
REMARK  125  A    between atoms: _315  and  _317
REMARK  126  A    between atoms: _317  and  _318
REMARK  127  A    between atoms: _317  and  _320
REMARK  128  A    between atoms: _320  and  _321
REMARK  129  A    between atoms: _326  and  _327
REMARK  130  A    between atoms: _329  and  _331
REMARK  131  A    between atoms: _331  and  _332
REMARK  132  A    between atoms: _331  and  _334
REMARK  133  A    between atoms: _334  and  _335
REMARK  134  A    between atoms: _340  and  _342
REMARK  135  A    between atoms: _342  and  _343
REMARK  136  A    between atoms: _342  and  _345
REMARK  137  A    between atoms: _345  and  _346
REMARK  138  A    between atoms: _349  and  _351
REMARK  139  A    between atoms: _351  and  _352
REMARK  140  A    between atoms: _351  and  _354
REMARK  141  A    between atoms: _354  and  _355
REMARK  142  A    between atoms: _360  and  _362
REMARK  143  A    between atoms: _362  and  _363
REMARK  144  A    between atoms: _362  and  _365
REMARK  145  A    between atoms: _365  and  _366
REMARK  146  A    between atoms: _376  and  _378
REMARK  147  A    between atoms: _378  and  _379
REMARK  148  A    between atoms: _378  and  _381
REMARK  149  A    between atoms: _381  and  _382
REMARK  150  A    between atoms: _388  and  _390
REMARK  151  A    between atoms: _390  and  _391
REMARK  152  A    between atoms: _390  and  _393
REMARK  153  A    between atoms: _393  and  _394
REMARK  154  A    between atoms: _397  and  _399
REMARK  155  A    between atoms: _399  and  _400
REMARK  156  A    between atoms: _399  and  _402
REMARK  157  A    between atoms: _402  and  _403
REMARK  158  A    between atoms: _406  and  _408
REMARK  159  A    between atoms: _408  and  _409
REMARK  160  A    between atoms: _408  and  _411
REMARK  161  A    between atoms: _411  and  _412
REMARK  162  A    between atoms: _412  and  _413
REMARK  163  A    between atoms: _413  and  _414
REMARK  164  A    between atoms: _423  and  _425
REMARK  165  A    between atoms: _425  and  _426
REMARK  166  A    between atoms: _425  and  _428
REMARK  167  A    between atoms: _428  and  _429
REMARK  168  A    between atoms: _434  and  _436
REMARK  169  A    between atoms: _436  and  _437
REMARK  170  A    between atoms: _436  and  _439
REMARK  171  A    between atoms: _439  and  _440
REMARK  172  A    between atoms: _441  and  _442
REMARK  173  A    between atoms: _451  and  _453
REMARK  174  A    between atoms: _453  and  _454
REMARK  175  A    between atoms: _457  and  _459
REMARK  176  A    between atoms: _459  and  _460
REMARK  177  A    between atoms: _462  and  _464
REMARK  178  A    between atoms: _464  and  _465
REMARK  179  A    between atoms: _464  and  _467
REMARK  180  A    between atoms: _467  and  _468
REMARK  181  A    between atoms: _478  and  _480
REMARK  182  A    between atoms: _480  and  _481
REMARK  183  A    between atoms: _480  and  _483
REMARK  184  A    between atoms: _483  and  _484
REMARK  185  A    between atoms: _485  and  _487
REMARK  186  A    between atoms: _487  and  _488
REMARK  187  A    between atoms: _491  and  _493
REMARK  188  A    between atoms: _493  and  _494
REMARK  189  A    between atoms: _493  and  _496
REMARK  190  A    between atoms: _496  and  _497
REMARK  191  A    between atoms: _500  and  _502
REMARK  192  A    between atoms: _502  and  _503
REMARK  193  A    between atoms: _502  and  _505
REMARK  194  A    between atoms: _505  and  _506
REMARK  195  A    between atoms: _511  and  _512
REMARK  196  A    between atoms: _514  and  _516
REMARK  197  A    between atoms: _516  and  _517
REMARK  198  A    between atoms: _516  and  _519
REMARK  199  A    between atoms: _519  and  _520
REMARK  200  A    between atoms: _522  and  _524
REMARK  201  A    between atoms: _524  and  _525
REMARK  202  A    between atoms: _524  and  _527
REMARK  203  A    between atoms: _527  and  _528
REMARK  204  A    between atoms: _534  and  _536
REMARK  205  A    between atoms: _536  and  _537
REMARK  206  A    between atoms: _536  and  _539
REMARK  207  A    between atoms: _539  and  _540
REMARK  208  A    between atoms: _543  and  _545
REMARK  209  A    between atoms: _545  and  _546
REMARK  210  A    between atoms: _545  and  _548
REMARK  211  A    between atoms: _548  and  _549
REMARK  212  A    between atoms: _551  and  _553
REMARK  213  A    between atoms: _553  and  _554
REMARK  214  A    between atoms: _553  and  _556
REMARK  215  A    between atoms: _556  and  _557
REMARK  216  A    between atoms: _562  and  _564
REMARK  217  A    between atoms: _564  and  _565
REMARK  218  A    between atoms: _564  and  _567
REMARK  219  A    between atoms: _567  and  _568
REMARK  220  A    between atoms: _571  and  _573
REMARK  221  A    between atoms: _573  and  _574
REMARK  222  A    between atoms: _573  and  _576
REMARK  223  A    between atoms: _576  and  _577
REMARK  224  A    between atoms: _582  and  _583
REMARK  225  A    between atoms: _585  and  _587
REMARK  226  A    between atoms: _587  and  _588
REMARK  227  A    between atoms: _587  and  _590
REMARK  228  A    between atoms: _590  and  _591
REMARK  229  A    between atoms: _596  and  _597
REMARK  230  A    between atoms: _599  and  _601
REMARK  231  A    between atoms: _601  and  _602
REMARK  232  A    between atoms: _601  and  _604
REMARK  233  A    between atoms: _607  and  _609
REMARK  234  A    between atoms: _609  and  _610
REMARK  235  A    between atoms: _609  and  _612
REMARK  236  A    between atoms: _612  and  _613
REMARK  237  A    between atoms: _618  and  _620
REMARK  238  A    between atoms: _620  and  _621
REMARK  239  A    between atoms: _624  and  _626
REMARK  240  A    between atoms: _626  and  _627
REMARK  241  A    between atoms: _626  and  _629
REMARK  242  A    between atoms: _629  and  _630
REMARK  243  A    between atoms: _630  and  _631
REMARK  244  A    between atoms: _631  and  _632
REMARK  245  A    between atoms: _641  and  _643
REMARK  246  A    between atoms: _643  and  _644
REMARK  247  A    between atoms: _643  and  _646
REMARK  248  A    between atoms: _646  and  _647
REMARK  249  A    between atoms: _650  and  _652
REMARK  250  A    between atoms: _652  and  _653
REMARK  251  A    between atoms: _652  and  _655
REMARK  252  A    between atoms: _655  and  _656
REMARK  253  A    between atoms: _659  and  _661
REMARK  254  A    between atoms: _661  and  _662
REMARK  255  A    between atoms: _661  and  _664
REMARK  256  A    between atoms: _664  and  _665
REMARK                            x       y       z     vdW  Elec       q    Type
REMARK                         _______ _______ _______ _____ _____    ______ ____
ROOT
ATOM      1  CG  TYR A   1       5.011  13.420  25.525  0.00  0.00    -0.020 A 
ATOM      2  CD2 TYR A   1       6.374  13.486  25.272  0.00  0.00    -0.001 A 
ATOM      3  CE2 TYR A   1       6.881  14.441  24.402  0.00  0.00    +0.036 A 
ATOM      4  CZ  TYR A   1       6.024  15.307  23.771  0.00  0.00    +0.134 A 
ATOM      5  CE1 TYR A   1       4.660  15.247  23.980  0.00  0.00    +0.036 A 
ATOM      6  CD1 TYR A   1       4.168  14.293  24.862  0.00  0.00    -0.001 A 
ENDROOT
BRANCH   4   7
ATOM      7  OH  TYR A   1       6.502  16.273  22.904  0.00  0.00    -0.506 OA
ATOM      8  HH  TYR A   1       7.122  16.873  23.390  0.00  0.00    +0.292 HD
ENDBRANCH   4   7
BRANCH   1   9
ATOM      9  CB  TYR A   1       4.461  12.401  26.500  0.00  0.00    +0.051 C 
BRANCH   9  10
ATOM     10  CA  TYR A   1       3.185  11.692  26.091  0.00  0.00    +0.137 C 
BRANCH  10  11
ATOM     11  N   TYR A   1       2.792  10.783  27.167  0.00  0.00    -0.239 NA
ATOM     12  H   TYR A   1       3.535  10.347  27.750  0.00  0.00    +0.142 HD
ENDBRANCH  10  11
BRANCH  10  13
ATOM     13  C   TYR A   1       3.366  10.843  24.837  0.00  0.00    +0.224 C 
ATOM     14  O   TYR A   1       2.667  10.986  23.837  0.00  0.00    -0.287 OA
ENDBRANCH  10  13
ENDBRANCH   9  10
ENDBRANCH   1   9
TORSDOF 5
REMARK  Name = ../refined-set-2016/1b6h/1b6h_pocket.pdb
REMARK  256 active torsions:
REMARK  status: ('A' for Active; 'I' for Inactive)
REMARK    1  A    between atoms: _1  and  _3
REMARK    2  A    between atoms: _3  and  _4
REMARK    3  A    between atoms: _3  and  _6
REMARK    4  A    between atoms: _6  and  _7
REMARK    5  A    between atoms: _12  and  _14
REMARK    6  A    between atoms: _14  and  _15
REMARK    7  A    between atoms: _17  and  _19
REMARK    8  A    between atoms: _19  and  _20
REMARK    9  A    between atoms: _19  and  _22
REMARK   10  A    between atoms: _22  and  _23
REMARK   11  A    between atoms: _23  and  _24
REMARK   12  A    between atoms: _29  and  _31
REMARK   13  A    between atoms: _31  and  _32
REMARK   14  A    between atoms: _31  and  _34
REMARK   15  A    between atoms: _34  and  _35
REMARK   16  A    between atoms: _38  and  _40
REMARK   17  A    between atoms: _40  and  _41
REMARK   18  A    between atoms: _40  and  _43
REMARK   19  A    between atoms: _43  and  _44
REMARK   20  A    between atoms: _44  and  _45
REMARK   21  A    between atoms: _48  and  _50
REMARK   22  A    between atoms: _50  and  _51
REMARK   23  A    between atoms: _53  and  _55
REMARK   24  A    between atoms: _55  and  _56
REMARK   25  A    between atoms: _55  and  _58
REMARK   26  A    between atoms: _62  and  _63
REMARK   27  A    between atoms: _68  and  _70
REMARK   28  A    between atoms: _70  and  _71
REMARK   29  A    between atoms: _70  and  _73
REMARK   30  A    between atoms: _73  and  _74
REMARK   31  A    between atoms: _74  and  _75
REMARK   32  A    between atoms: _78  and  _80
REMARK   33  A    between atoms: _80  and  _81
REMARK   34  A    between atoms: _80  and  _83
REMARK   35  A    between atoms: _83  and  _84
REMARK   36  A    between atoms: _86  and  _88
REMARK   37  A    between atoms: _88  and  _89
REMARK   38  A    between atoms: _88  and  _91
REMARK   39  A    between atoms: _91  and  _92
REMARK   40  A    between atoms: _97  and  _99
REMARK   41  A    between atoms: _99  and  _100
REMARK   42  A    between atoms: _99  and  _102
REMARK   43  A    between atoms: _102  and  _103
REMARK   44  A    between atoms: _103  and  _104
REMARK   45  A    between atoms: _104  and  _105
REMARK   46  A    between atoms: _115  and  _116
REMARK   47  A    between atoms: _121  and  _123
REMARK   48  A    between atoms: _123  and  _124
REMARK   49  A    between atoms: _123  and  _126
REMARK   50  A    between atoms: _126  and  _127
REMARK   51  A    between atoms: _132  and  _133
REMARK   52  A    between atoms: _135  and  _137
REMARK   53  A    between atoms: _137  and  _138
REMARK   54  A    between atoms: _137  and  _140
REMARK   55  A    between atoms: _140  and  _141
REMARK   56  A    between atoms: _146  and  _147
REMARK   57  A    between atoms: _149  and  _151
REMARK   58  A    between atoms: _151  and  _152
REMARK   59  A    between atoms: _151  and  _154
REMARK   60  A    between atoms: _157  and  _159
REMARK   61  A    between atoms: _159  and  _160
REMARK   62  A    between atoms: _159  and  _162
REMARK   63  A    between atoms: _162  and  _163
REMARK   64  A    between atoms: _169  and  _170
REMARK   65  A    between atoms: _175  and  _177
REMARK   66  A    between atoms: _177  and  _178
REMARK   67  A    between atoms: _177  and  _180
REMARK   68  A    between atoms: _180  and  _181
REMARK   69  A    between atoms: _183  and  _185
REMARK   70  A    between atoms: _185  and  _186
REMARK   71  A    between atoms: _185  and  _188
REMARK   72  A    between atoms: _188  and  _189
REMARK   73  A    between atoms: _189  and  _190
REMARK   74  A    between atoms: _193  and  _195
REMARK   75  A    between atoms: _195  and  _196
REMARK   76  A    between atoms: _195  and  _198
REMARK   77  A    between atoms: _198  and  _199
REMARK   78  A    between atoms: _204  and  _205
REMARK   79  A    between atoms: _207  and  _209
REMARK   80  A    between atoms: _209  and  _210
REMARK   81  A    between atoms: _209  and  _212
REMARK   82  A    between atoms: _212  and  _213
REMARK   83  A    between atoms: _218  and  _220
REMARK   84  A    between atoms: _220  and  _221
REMARK   85  A    between atoms: _220  and  _223
REMARK   86  A    between atoms: _223  and  _224
REMARK   87  A    between atoms: _229  and  _231
REMARK   88  A    between atoms: _231  and  _232
REMARK   89  A    between atoms: _231  and  _234
REMARK   90  A    between atoms: _234  and  _235
REMARK   91  A    between atoms: _235  and  _236
REMARK   92  A    between atoms: _238  and  _240
REMARK   93  A    between atoms: _240  and  _241
REMARK   94  A    between atoms: _240  and  _243
REMARK   95  A    between atoms: _243  and  _244
REMARK   96  A    between atoms: _249  and  _250
REMARK   97  A    between atoms: _252  and  _254
REMARK   98  A    between atoms: _254  and  _255
REMARK   99  A    between atoms: _254  and  _257
REMARK  100  A    between atoms: _257  and  _258
REMARK  101  A    between atoms: _261  and  _263
REMARK  102  A    between atoms: _263  and  _264
REMARK  103  A    between atoms: _263  and  _266
REMARK  104  A    between atoms: _266  and  _267
REMARK  105  A    between atoms: _267  and  _484
REMARK  106  A    between atoms: _268  and  _270
REMARK  107  A    between atoms: _270  and  _271
REMARK  108  A    between atoms: _270  and  _273
REMARK  109  A    between atoms: _273  and  _274
REMARK  110  A    between atoms: _277  and  _279
REMARK  111  A    between atoms: _279  and  _280
REMARK  112  A    between atoms: _279  and  _282
REMARK  113  A    between atoms: _282  and  _283
REMARK  114  A    between atoms: _288  and  _289
REMARK  115  A    between atoms: _291  and  _293
REMARK  116  A    between atoms: _293  and  _294
REMARK  117  A    between atoms: _293  and  _296
REMARK  118  A    between atoms: _296  and  _297
REMARK  119  A    between atoms: _302  and  _303
REMARK  120  A    between atoms: _305  and  _307
REMARK  121  A    between atoms: _307  and  _308
REMARK  122  A    between atoms: _307  and  _310
REMARK  123  A    between atoms: _310  and  _311
REMARK  124  A    between atoms: _311  and  _312
REMARK  125  A    between atoms: _315  and  _317
REMARK  126  A    between atoms: _317  and  _318
REMARK  127  A    between atoms: _317  and  _320
REMARK  128  A    between atoms: _320  and  _321
REMARK  129  A    between atoms: _326  and  _327
REMARK  130  A    between atoms: _329  and  _331
REMARK  131  A    between atoms: _331  and  _332
REMARK  132  A    between atoms: _331  and  _334
REMARK  133  A    between atoms: _334  and  _335
REMARK  134  A    between atoms: _340  and  _342
REMARK  135  A    between atoms: _342  and  _343
REMARK  136  A    between atoms: _342  and  _345
REMARK  137  A    between atoms: _345  and  _346
REMARK  138  A    between atoms: _349  and  _351
REMARK  139  A    between atoms: _351  and  _352
REMARK  140  A    between atoms: _351  and  _354
REMARK  141  A    between atoms: _354  and  _355
REMARK  142  A    between atoms: _360  and  _362
REMARK  143  A    between atoms: _362  and  _363
REMARK  144  A    between atoms: _362  and  _365
REMARK  145  A    between atoms: _365  and  _366
REMARK  146  A    between atoms: _376  and  _378
REMARK  147  A    between atoms: _378  and  _379
REMARK  148  A    between atoms: _378  and  _381
REMARK  149  A    between atoms: _381  and  _382
REMARK  150  A    between atoms: _388  and  _390
REMARK  151  A    between atoms: _390  and  _391
REMARK  152  A    between atoms: _390  and  _393
REMARK  153  A    between atoms: _393  and  _394
REMARK  154  A    between atoms: _397  and  _399
REMARK  155  A    between atoms: _399  and  _400
REMARK  156  A    between atoms: _399  and  _402
REMARK  157  A    between atoms: _402  and  _403
REMARK  158  A    between atoms: _406  and  _408
REMARK  159  A    between atoms: _408  and  _409
REMARK  160  A    between atoms: _408  and  _411
REMARK  161  A    between atoms: _411  and  _412
REMARK  162  A    between atoms: _412  and  _413
REMARK  163  A    between atoms: _413  and  _414
REMARK  164  A    between atoms: _423  and  _425
REMARK  165  A    between atoms: _425  and  _426
REMARK  166  A    between atoms: _425  and  _428
REMARK  167  A    between atoms: _428  and  _429
REMARK  168  A    between atoms: _434  and  _436
REMARK  169  A    between atoms: _436  and  _437
REMARK  170  A    between atoms: _436  and  _439
REMARK  171  A    between atoms: _439  and  _440
REMARK  172  A    between atoms: _441  and  _442
REMARK  173  A    between atoms: _451  and  _453
REMARK  174  A    between atoms: _453  and  _454
REMARK  175  A    between atoms: _457  and  _459
REMARK  176  A    between atoms: _459  and  _460
REMARK  177  A    between atoms: _462  and  _464
REMARK  178  A    between atoms: _464  and  _465
REMARK  179  A    between atoms: _464  and  _467
REMARK  180  A    between atoms: _467  and  _468
REMARK  181  A    between atoms: _478  and  _480
REMARK  182  A    between atoms: _480  and  _481
REMARK  183  A    between atoms: _480  and  _483
REMARK  184  A    between atoms: _483  and  _484
REMARK  185  A    between atoms: _485  and  _487
REMARK  186  A    between atoms: _487  and  _488
REMARK  187  A    between atoms: _491  and  _493
REMARK  188  A    between atoms: _493  and  _494
REMARK  189  A    between atoms: _493  and  _496
REMARK  190  A    between atoms: _496  and  _497
REMARK  191  A    between atoms: _500  and  _502
REMARK  192  A    between atoms: _502  and  _503
REMARK  193  A    between atoms: _502  and  _505
REMARK  194  A    between atoms: _505  and  _506
REMARK  195  A    between atoms: _511  and  _512
REMARK  196  A    between atoms: _514  and  _516
REMARK  197  A    between atoms: _516  and  _517
REMARK  198  A    between atoms: _516  and  _519
REMARK  199  A    between atoms: _519  and  _520
REMARK  200  A    between atoms: _522  and  _524
REMARK  201  A    between atoms: _524  and  _525
REMARK  202  A    between atoms: _524  and  _527
REMARK  203  A    between atoms: _527  and  _528
REMARK  204  A    between atoms: _534  and  _536
REMARK  205  A    between atoms: _536  and  _537
REMARK  206  A    between atoms: _536  and  _539
REMARK  207  A    between atoms: _539  and  _540
REMARK  208  A    between atoms: _543  and  _545
REMARK  209  A    between atoms: _545  and  _546
REMARK  210  A    between atoms: _545  and  _548
REMARK  211  A    between atoms: _548  and  _549
REMARK  212  A    between atoms: _551  and  _553
REMARK  213  A    between atoms: _553  and  _554
REMARK  214  A    between atoms: _553  and  _556
REMARK  215  A    between atoms: _556  and  _557
REMARK  216  A    between atoms: _562  and  _564
REMARK  217  A    between atoms: _564  and  _565
REMARK  218  A    between atoms: _564  and  _567
REMARK  219  A    between atoms: _567  and  _568
REMARK  220  A    between atoms: _571  and  _573
REMARK  221  A    between atoms: _573  and  _574
REMARK  222  A    between atoms: _573  and  _576
REMARK  223  A    between atoms: _576  and  _577
REMARK  224  A    between atoms: _582  and  _583
REMARK  225  A    between atoms: _585  and  _587
REMARK  226  A    between atoms: _587  and  _588
REMARK  227  A    between atoms: _587  and  _590
REMARK  228  A    between atoms: _590  and  _591
REMARK  229  A    between atoms: _596  and  _597
REMARK  230  A    between atoms: _599  and  _601
REMARK  231  A    between atoms: _601  and  _602
REMARK  232  A    between atoms: _601  and  _604
REMARK  233  A    between atoms: _607  and  _609
REMARK  234  A    between atoms: _609  and  _610
REMARK  235  A    between atoms: _609  and  _612
REMARK  236  A    between atoms: _612  and  _613
REMARK  237  A    between atoms: _618  and  _620
REMARK  238  A    between atoms: _620  and  _621
REMARK  239  A    between atoms: _624  and  _626
REMARK  240  A    between atoms: _626  and  _627
REMARK  241  A    between atoms: _626  and  _629
REMARK  242  A    between atoms: _629  and  _630
REMARK  243  A    between atoms: _630  and  _631
REMARK  244  A    between atoms: _631  and  _632
REMARK  245  A    between atoms: _641  and  _643
REMARK  246  A    between atoms: _643  and  _644
REMARK  247  A    between atoms: _643  and  _646
REMARK  248  A    between atoms: _646  and  _647
REMARK  249  A    between atoms: _650  and  _652
REMARK  250  A    between atoms: _652  and  _653
REMARK  251  A    between atoms: _652  and  _655
REMARK  252  A    between atoms: _655  and  _656
REMARK  253  A    between atoms: _659  and  _661
REMARK  254  A    between atoms: _661  and  _662
REMARK  255  A    between atoms: _661  and  _664
REMARK  256  A    between atoms: _664  and  _665
REMARK                            x       y       z     vdW  Elec       q    Type
REMARK                         _______ _______ _______ _____ _____    ______ ____
ROOT
ATOM      1  CB  ASN A   1      -2.970  27.535  17.168  0.00  0.00    +0.110 C 
ENDROOT
BRANCH   1   2
ATOM      2  CG  ASN A   1      -3.350  26.077  17.086  0.00  0.00    +0.221 C 
ATOM      3  OD1 ASN A   1      -3.364  25.359  18.083  0.00  0.00    -0.275 OA
ATOM      4  ND2 ASN A   1      -3.685  25.583  15.882  0.00  0.00    -0.329 N 
ATOM      5 HD21 ASN A   1      -3.959  24.584  15.788  0.00  0.00    +0.145 HD
ATOM      6 HD22 ASN A   1      -3.670  26.199  15.044  0.00  0.00    +0.145 HD
ENDBRANCH   1   2
BRANCH   1   7
ATOM      7  CA  ASN A   1      -3.953  28.370  18.006  0.00  0.00    +0.142 C 
BRANCH   7   8
ATOM      8  N   ASN A   1      -4.014  27.776  19.353  0.00  0.00    -0.239 NA
ATOM      9  H   ASN A   1      -3.819  26.768  19.518  0.00  0.00    +0.142 HD
ENDBRANCH   7   8
BRANCH   7  10
ATOM     10  C   ASN A   1      -5.362  28.406  17.445  0.00  0.00    +0.225 C 
ATOM     11  O   ASN A   1      -6.140  27.453  17.539  0.00  0.00    -0.287 OA
ENDBRANCH   7  10
ENDBRANCH   1   7
TORSDOF 4
REMARK  Name = ../refined-set-2016/1b6h/1b6h_pocket.pdb
REMARK  256 active torsions:
REMARK  status: ('A' for Active; 'I' for Inactive)
REMARK    1  A    between atoms: _1  and  _3
REMARK    2  A    between atoms: _3  and  _4
REMARK    3  A    between atoms: _3  and  _6
REMARK    4  A    between atoms: _6  and  _7
REMARK    5  A    between atoms: _12  and  _14
REMARK    6  A    between atoms: _14  and  _15
REMARK    7  A    between atoms: _17  and  _19
REMARK    8  A    between atoms: _19  and  _20
REMARK    9  A    between atoms: _19  and  _22
REMARK   10  A    between atoms: _22  and  _23
REMARK   11  A    between atoms: _23  and  _24
REMARK   12  A    between atoms: _29  and  _31
REMARK   13  A    between atoms: _31  and  _32
REMARK   14  A    between atoms: _31  and  _34
REMARK   15  A    between atoms: _34  and  _35
REMARK   16  A    between atoms: _38  and  _40
REMARK   17  A    between atoms: _40  and  _41
REMARK   18  A    between atoms: _40  and  _43
REMARK   19  A    between atoms: _43  and  _44
REMARK   20  A    between atoms: _44  and  _45
REMARK   21  A    between atoms: _48  and  _50
REMARK   22  A    between atoms: _50  and  _51
REMARK   23  A    between atoms: _53  and  _55
REMARK   24  A    between atoms: _55  and  _56
REMARK   25  A    between atoms: _55  and  _58
REMARK   26  A    between atoms: _62  and  _63
REMARK   27  A    between atoms: _68  and  _70
REMARK   28  A    between atoms: _70  and  _71
REMARK   29  A    between atoms: _70  and  _73
REMARK   30  A    between atoms: _73  and  _74
REMARK   31  A    between atoms: _74  and  _75
REMARK   32  A    between atoms: _78  and  _80
REMARK   33  A    between atoms: _80  and  _81
REMARK   34  A    between atoms: _80  and  _83
REMARK   35  A    between atoms: _83  and  _84
REMARK   36  A    between atoms: _86  and  _88
REMARK   37  A    between atoms: _88  and  _89
REMARK   38  A    between atoms: _88  and  _91
REMARK   39  A    between atoms: _91  and  _92
REMARK   40  A    between atoms: _97  and  _99
REMARK   41  A    between atoms: _99  and  _100
REMARK   42  A    between atoms: _99  and  _102
REMARK   43  A    between atoms: _102  and  _103
REMARK   44  A    between atoms: _103  and  _104
REMARK   45  A    between atoms: _104  and  _105
REMARK   46  A    between atoms: _115  and  _116
REMARK   47  A    between atoms: _121  and  _123
REMARK   48  A    between atoms: _123  and  _124
REMARK   49  A    between atoms: _123  and  _126
REMARK   50  A    between atoms: _126  and  _127
REMARK   51  A    between atoms: _132  and  _133
REMARK   52  A    between atoms: _135  and  _137
REMARK   53  A    between atoms: _137  and  _138
REMARK   54  A    between atoms: _137  and  _140
REMARK   55  A    between atoms: _140  and  _141
REMARK   56  A    between atoms: _146  and  _147
REMARK   57  A    between atoms: _149  and  _151
REMARK   58  A    between atoms: _151  and  _152
REMARK   59  A    between atoms: _151  and  _154
REMARK   60  A    between atoms: _157  and  _159
REMARK   61  A    between atoms: _159  and  _160
REMARK   62  A    between atoms: _159  and  _162
REMARK   63  A    between atoms: _162  and  _163
REMARK   64  A    between atoms: _169  and  _170
REMARK   65  A    between atoms: _175  and  _177
REMARK   66  A    between atoms: _177  and  _178
REMARK   67  A    between atoms: _177  and  _180
REMARK   68  A    between atoms: _180  and  _181
REMARK   69  A    between atoms: _183  and  _185
REMARK   70  A    between atoms: _185  and  _186
REMARK   71  A    between atoms: _185  and  _188
REMARK   72  A    between atoms: _188  and  _189
REMARK   73  A    between atoms: _189  and  _190
REMARK   74  A    between atoms: _193  and  _195
REMARK   75  A    between atoms: _195  and  _196
REMARK   76  A    between atoms: _195  and  _198
REMARK   77  A    between atoms: _198  and  _199
REMARK   78  A    between atoms: _204  and  _205
REMARK   79  A    between atoms: _207  and  _209
REMARK   80  A    between atoms: _209  and  _210
REMARK   81  A    between atoms: _209  and  _212
REMARK   82  A    between atoms: _212  and  _213
REMARK   83  A    between atoms: _218  and  _220
REMARK   84  A    between atoms: _220  and  _221
REMARK   85  A    between atoms: _220  and  _223
REMARK   86  A    between atoms: _223  and  _224
REMARK   87  A    between atoms: _229  and  _231
REMARK   88  A    between atoms: _231  and  _232
REMARK   89  A    between atoms: _231  and  _234
REMARK   90  A    between atoms: _234  and  _235
REMARK   91  A    between atoms: _235  and  _236
REMARK   92  A    between atoms: _238  and  _240
REMARK   93  A    between atoms: _240  and  _241
REMARK   94  A    between atoms: _240  and  _243
REMARK   95  A    between atoms: _243  and  _244
REMARK   96  A    between atoms: _249  and  _250
REMARK   97  A    between atoms: _252  and  _254
REMARK   98  A    between atoms: _254  and  _255
REMARK   99  A    between atoms: _254  and  _257
REMARK  100  A    between atoms: _257  and  _258
REMARK  101  A    between atoms: _261  and  _263
REMARK  102  A    between atoms: _263  and  _264
REMARK  103  A    between atoms: _263  and  _266
REMARK  104  A    between atoms: _266  and  _267
REMARK  105  A    between atoms: _267  and  _484
REMARK  106  A    between atoms: _268  and  _270
REMARK  107  A    between atoms: _270  and  _271
REMARK  108  A    between atoms: _270  and  _273
REMARK  109  A    between atoms: _273  and  _274
REMARK  110  A    between atoms: _277  and  _279
REMARK  111  A    between atoms: _279  and  _280
REMARK  112  A    between atoms: _279  and  _282
REMARK  113  A    between atoms: _282  and  _283
REMARK  114  A    between atoms: _288  and  _289
REMARK  115  A    between atoms: _291  and  _293
REMARK  116  A    between atoms: _293  and  _294
REMARK  117  A    between atoms: _293  and  _296
REMARK  118  A    between atoms: _296  and  _297
REMARK  119  A    between atoms: _302  and  _303
REMARK  120  A    between atoms: _305  and  _307
REMARK  121  A    between atoms: _307  and  _308
REMARK  122  A    between atoms: _307  and  _310
REMARK  123  A    between atoms: _310  and  _311
REMARK  124  A    between atoms: _311  and  _312
REMARK  125  A    between atoms: _315  and  _317
REMARK  126  A    between atoms: _317  and  _318
REMARK  127  A    between atoms: _317  and  _320
REMARK  128  A    between atoms: _320  and  _321
REMARK  129  A    between atoms: _326  and  _327
REMARK  130  A    between atoms: _329  and  _331
REMARK  131  A    between atoms: _331  and  _332
REMARK  132  A    between atoms: _331  and  _334
REMARK  133  A    between atoms: _334  and  _335
REMARK  134  A    between atoms: _340  and  _342
REMARK  135  A    between atoms: _342  and  _343
REMARK  136  A    between atoms: _342  and  _345
REMARK  137  A    between atoms: _345  and  _346
REMARK  138  A    between atoms: _349  and  _351
REMARK  139  A    between atoms: _351  and  _352
REMARK  140  A    between atoms: _351  and  _354
REMARK  141  A    between atoms: _354  and  _355
REMARK  142  A    between atoms: _360  and  _362
REMARK  143  A    between atoms: _362  and  _363
REMARK  144  A    between atoms: _362  and  _365
REMARK  145  A    between atoms: _365  and  _366
REMARK  146  A    between atoms: _376  and  _378
REMARK  147  A    between atoms: _378  and  _379
REMARK  148  A    between atoms: _378  and  _381
REMARK  149  A    between atoms: _381  and  _382
REMARK  150  A    between atoms: _388  and  _390
REMARK  151  A    between atoms: _390  and  _391
REMARK  152  A    between atoms: _390  and  _393
REMARK  153  A    between atoms: _393  and  _394
REMARK  154  A    between atoms: _397  and  _399
REMARK  155  A    between atoms: _399  and  _400
REMARK  156  A    between atoms: _399  and  _402
REMARK  157  A    between atoms: _402  and  _403
REMARK  158  A    between atoms: _406  and  _408
REMARK  159  A    between atoms: _408  and  _409
REMARK  160  A    between atoms: _408  and  _411
REMARK  161  A    between atoms: _411  and  _412
REMARK  162  A    between atoms: _412  and  _413
REMARK  163  A    between atoms: _413  and  _414
REMARK  164  A    between atoms: _423  and  _425
REMARK  165  A    between atoms: _425  and  _426
REMARK  166  A    between atoms: _425  and  _428
REMARK  167  A    between atoms: _428  and  _429
REMARK  168  A    between atoms: _434  and  _436
REMARK  169  A    between atoms: _436  and  _437
REMARK  170  A    between atoms: _436  and  _439
REMARK  171  A    between atoms: _439  and  _440
REMARK  172  A    between atoms: _441  and  _442
REMARK  173  A    between atoms: _451  and  _453
REMARK  174  A    between atoms: _453  and  _454
REMARK  175  A    between atoms: _457  and  _459
REMARK  176  A    between atoms: _459  and  _460
REMARK  177  A    between atoms: _462  and  _464
REMARK  178  A    between atoms: _464  and  _465
REMARK  179  A    between atoms: _464  and  _467
REMARK  180  A    between atoms: _467  and  _468
REMARK  181  A    between atoms: _478  and  _480
REMARK  182  A    between atoms: _480  and  _481
REMARK  183  A    between atoms: _480  and  _483
REMARK  184  A    between atoms: _483  and  _484
REMARK  185  A    between atoms: _485  and  _487
REMARK  186  A    between atoms: _487  and  _488
REMARK  187  A    between atoms: _491  and  _493
REMARK  188  A    between atoms: _493  and  _494
REMARK  189  A    between atoms: _493  and  _496
REMARK  190  A    between atoms: _496  and  _497
REMARK  191  A    between atoms: _500  and  _502
REMARK  192  A    between atoms: _502  and  _503
REMARK  193  A    between atoms: _502  and  _505
REMARK  194  A    between atoms: _505  and  _506
REMARK  195  A    between atoms: _511  and  _512
REMARK  196  A    between atoms: _514  and  _516
REMARK  197  A    between atoms: _516  and  _517
REMARK  198  A    between atoms: _516  and  _519
REMARK  199  A    between atoms: _519  and  _520
REMARK  200  A    between atoms: _522  and  _524
REMARK  201  A    between atoms: _524  and  _525
REMARK  202  A    between atoms: _524  and  _527
REMARK  203  A    between atoms: _527  and  _528
REMARK  204  A    between atoms: _534  and  _536
REMARK  205  A    between atoms: _536  and  _537
REMARK  206  A    between atoms: _536  and  _539
REMARK  207  A    between atoms: _539  and  _540
REMARK  208  A    between atoms: _543  and  _545
REMARK  209  A    between atoms: _545  and  _546
REMARK  210  A    between atoms: _545  and  _548
REMARK  211  A    between atoms: _548  and  _549
REMARK  212  A    between atoms: _551  and  _553
REMARK  213  A    between atoms: _553  and  _554
REMARK  214  A    between atoms: _553  and  _556
REMARK  215  A    between atoms: _556  and  _557
REMARK  216  A    between atoms: _562  and  _564
REMARK  217  A    between atoms: _564  and  _565
REMARK  218  A    between atoms: _564  and  _567
REMARK  219  A    between atoms: _567  and  _568
REMARK  220  A    between atoms: _571  and  _573
REMARK  221  A    between atoms: _573  and  _574
REMARK  222  A    between atoms: _573  and  _576
REMARK  223  A    between atoms: _576  and  _577
REMARK  224  A    between atoms: _582  and  _583
REMARK  225  A    between atoms: _585  and  _587
REMARK  226  A    between atoms: _587  and  _588
REMARK  227  A    between atoms: _587  and  _590
REMARK  228  A    between atoms: _590  and  _591
REMARK  229  A    between atoms: _596  and  _597
REMARK  230  A    between atoms: _599  and  _601
REMARK  231  A    between atoms: _601  and  _602
REMARK  232  A    between atoms: _601  and  _604
REMARK  233  A    between atoms: _607  and  _609
REMARK  234  A    between atoms: _609  and  _610
REMARK  235  A    between atoms: _609  and  _612
REMARK  236  A    between atoms: _612  and  _613
REMARK  237  A    between atoms: _618  and  _620
REMARK  238  A    between atoms: _620  and  _621
REMARK  239  A    between atoms: _624  and  _626
REMARK  240  A    between atoms: _626  and  _627
REMARK  241  A    between atoms: _626  and  _629
REMARK  242  A    between atoms: _629  and  _630
REMARK  243  A    between atoms: _630  and  _631
REMARK  244  A    between atoms: _631  and  _632
REMARK  245  A    between atoms: _641  and  _643
REMARK  246  A    between atoms: _643  and  _644
REMARK  247  A    between atoms: _643  and  _646
REMARK  248  A    between atoms: _646  and  _647
REMARK  249  A    between atoms: _650  and  _652
REMARK  250  A    between atoms: _652  and  _653
REMARK  251  A    between atoms: _652  and  _655
REMARK  252  A    between atoms: _655  and  _656
REMARK  253  A    between atoms: _659  and  _661
REMARK  254  A    between atoms: _661  and  _662
REMARK  255  A    between atoms: _661  and  _664
REMARK  256  A    between atoms: _664  and  _665
REMARK                            x       y       z     vdW  Elec       q    Type
REMARK                         _______ _______ _______ _____ _____    ______ ____
ROOT
ATOM      1  C   LEU A   1     -11.090  22.862  18.671  0.00  0.00    +0.238 C 
ATOM      2  O   LEU A   1     -11.584  22.465  19.750  0.00  0.00    -0.274 OA
ATOM      3  N   HIS A   2      -9.948  23.573  18.610  0.00  0.00    -0.298 N 
ATOM      4  H   HIS A   2      -9.589  23.921  17.698  0.00  0.00    +0.150 HD
ENDROOT
BRANCH   1   5
ATOM      5  CA  LEU A   1     -11.839  22.515  17.387  0.00  0.00    +0.145 C 
BRANCH   5   6
ATOM      6  N   LEU A   1     -12.114  23.646  16.535  0.00  0.00    -0.238 NA
ATOM      7  H   LEU A   1     -11.743  23.649  15.563  0.00  0.00    +0.142 HD
ENDBRANCH   5   6
BRANCH   5   8
ATOM      8  CB  LEU A   1     -11.028  21.454  16.613  0.00  0.00    +0.026 C 
BRANCH   8   9
ATOM      9  CG  LEU A   1     -10.476  20.266  17.382  0.00  0.00    +0.002 C 
ATOM     10  CD2 LEU A   1     -11.618  19.390  17.892  0.00  0.00    +0.000 C 
ATOM     11  CD1 LEU A   1      -9.582  19.407  16.496  0.00  0.00    +0.000 C 
ENDBRANCH   8   9
ENDBRANCH   5   8
ENDBRANCH   1   5
BRANCH   3  12
ATOM     12  CA  HIS A   2      -9.222  23.847  19.847  0.00  0.00    +0.143 C 
BRANCH  12  13
ATOM     13  C   HIS A   2      -9.996  24.823  20.728  0.00  0.00    +0.227 C 
ATOM     14  O   HIS A   2      -9.903  24.709  21.961  0.00  0.00    -0.286 OA
ENDBRANCH  12  13
BRANCH  12  15
ATOM     15  CB  HIS A   2      -7.817  24.418  19.588  0.00  0.00    +0.075 C 
BRANCH  15  16
ATOM     16  CG  HIS A   2      -7.034  23.505  18.683  0.00  0.00    +0.082 A 
ATOM     17  ND1 HIS A   2      -6.951  22.155  18.898  0.00  0.00    -0.227 NA
ATOM     18  CE1 HIS A   2      -6.186  21.616  17.930  0.00  0.00    +0.199 A 
ATOM     19  NE2 HIS A   2      -5.796  22.606  17.147  0.00  0.00    -0.221 NA
ATOM     20  CD2 HIS A   2      -6.302  23.808  17.561  0.00  0.00    +0.115 A 
ENDBRANCH  15  16
ENDBRANCH  12  15
ENDBRANCH   3  12
TORSDOF 8
REMARK  Name = ../refined-set-2016/1b6h/1b6h_pocket.pdb
REMARK  256 active torsions:
REMARK  status: ('A' for Active; 'I' for Inactive)
REMARK    1  A    between atoms: _1  and  _3
REMARK    2  A    between atoms: _3  and  _4
REMARK    3  A    between atoms: _3  and  _6
REMARK    4  A    between atoms: _6  and  _7
REMARK    5  A    between atoms: _12  and  _14
REMARK    6  A    between atoms: _14  and  _15
REMARK    7  A    between atoms: _17  and  _19
REMARK    8  A    between atoms: _19  and  _20
REMARK    9  A    between atoms: _19  and  _22
REMARK   10  A    between atoms: _22  and  _23
REMARK   11  A    between atoms: _23  and  _24
REMARK   12  A    between atoms: _29  and  _31
REMARK   13  A    between atoms: _31  and  _32
REMARK   14  A    between atoms: _31  and  _34
REMARK   15  A    between atoms: _34  and  _35
REMARK   16  A    between atoms: _38  and  _40
REMARK   17  A    between atoms: _40  and  _41
REMARK   18  A    between atoms: _40  and  _43
REMARK   19  A    between atoms: _43  and  _44
REMARK   20  A    between atoms: _44  and  _45
REMARK   21  A    between atoms: _48  and  _50
REMARK   22  A    between atoms: _50  and  _51
REMARK   23  A    between atoms: _53  and  _55
REMARK   24  A    between atoms: _55  and  _56
REMARK   25  A    between atoms: _55  and  _58
REMARK   26  A    between atoms: _62  and  _63
REMARK   27  A    between atoms: _68  and  _70
REMARK   28  A    between atoms: _70  and  _71
REMARK   29  A    between atoms: _70  and  _73
REMARK   30  A    between atoms: _73  and  _74
REMARK   31  A    between atoms: _74  and  _75
REMARK   32  A    between atoms: _78  and  _80
REMARK   33  A    between atoms: _80  and  _81
REMARK   34  A    between atoms: _80  and  _83
REMARK   35  A    between atoms: _83  and  _84
REMARK   36  A    between atoms: _86  and  _88
REMARK   37  A    between atoms: _88  and  _89
REMARK   38  A    between atoms: _88  and  _91
REMARK   39  A    between atoms: _91  and  _92
REMARK   40  A    between atoms: _97  and  _99
REMARK   41  A    between atoms: _99  and  _100
REMARK   42  A    between atoms: _99  and  _102
REMARK   43  A    between atoms: _102  and  _103
REMARK   44  A    between atoms: _103  and  _104
REMARK   45  A    between atoms: _104  and  _105
REMARK   46  A    between atoms: _115  and  _116
REMARK   47  A    between atoms: _121  and  _123
REMARK   48  A    between atoms: _123  and  _124
REMARK   49  A    between atoms: _123  and  _126
REMARK   50  A    between atoms: _126  and  _127
REMARK   51  A    between atoms: _132  and  _133
REMARK   52  A    between atoms: _135  and  _137
REMARK   53  A    between atoms: _137  and  _138
REMARK   54  A    between atoms: _137  and  _140
REMARK   55  A    between atoms: _140  and  _141
REMARK   56  A    between atoms: _146  and  _147
REMARK   57  A    between atoms: _149  and  _151
REMARK   58  A    between atoms: _151  and  _152
REMARK   59  A    between atoms: _151  and  _154
REMARK   60  A    between atoms: _157  and  _159
REMARK   61  A    between atoms: _159  and  _160
REMARK   62  A    between atoms: _159  and  _162
REMARK   63  A    between atoms: _162  and  _163
REMARK   64  A    between atoms: _169  and  _170
REMARK   65  A    between atoms: _175  and  _177
REMARK   66  A    between atoms: _177  and  _178
REMARK   67  A    between atoms: _177  and  _180
REMARK   68  A    between atoms: _180  and  _181
REMARK   69  A    between atoms: _183  and  _185
REMARK   70  A    between atoms: _185  and  _186
REMARK   71  A    between atoms: _185  and  _188
REMARK   72  A    between atoms: _188  and  _189
REMARK   73  A    between atoms: _189  and  _190
REMARK   74  A    between atoms: _193  and  _195
REMARK   75  A    between atoms: _195  and  _196
REMARK   76  A    between atoms: _195  and  _198
REMARK   77  A    between atoms: _198  and  _199
REMARK   78  A    between atoms: _204  and  _205
REMARK   79  A    between atoms: _207  and  _209
REMARK   80  A    between atoms: _209  and  _210
REMARK   81  A    between atoms: _209  and  _212
REMARK   82  A    between atoms: _212  and  _213
REMARK   83  A    between atoms: _218  and  _220
REMARK   84  A    between atoms: _220  and  _221
REMARK   85  A    between atoms: _220  and  _223
REMARK   86  A    between atoms: _223  and  _224
REMARK   87  A    between atoms: _229  and  _231
REMARK   88  A    between atoms: _231  and  _232
REMARK   89  A    between atoms: _231  and  _234
REMARK   90  A    between atoms: _234  and  _235
REMARK   91  A    between atoms: _235  and  _236
REMARK   92  A    between atoms: _238  and  _240
REMARK   93  A    between atoms: _240  and  _241
REMARK   94  A    between atoms: _240  and  _243
REMARK   95  A    between atoms: _243  and  _244
REMARK   96  A    between atoms: _249  and  _250
REMARK   97  A    between atoms: _252  and  _254
REMARK   98  A    between atoms: _254  and  _255
REMARK   99  A    between atoms: _254  and  _257
REMARK  100  A    between atoms: _257  and  _258
REMARK  101  A    between atoms: _261  and  _263
REMARK  102  A    between atoms: _263  and  _264
REMARK  103  A    between atoms: _263  and  _266
REMARK  104  A    between atoms: _266  and  _267
REMARK  105  A    between atoms: _267  and  _484
REMARK  106  A    between atoms: _268  and  _270
REMARK  107  A    between atoms: _270  and  _271
REMARK  108  A    between atoms: _270  and  _273
REMARK  109  A    between atoms: _273  and  _274
REMARK  110  A    between atoms: _277  and  _279
REMARK  111  A    between atoms: _279  and  _280
REMARK  112  A    between atoms: _279  and  _282
REMARK  113  A    between atoms: _282  and  _283
REMARK  114  A    between atoms: _288  and  _289
REMARK  115  A    between atoms: _291  and  _293
REMARK  116  A    between atoms: _293  and  _294
REMARK  117  A    between atoms: _293  and  _296
REMARK  118  A    between atoms: _296  and  _297
REMARK  119  A    between atoms: _302  and  _303
REMARK  120  A    between atoms: _305  and  _307
REMARK  121  A    between atoms: _307  and  _308
REMARK  122  A    between atoms: _307  and  _310
REMARK  123  A    between atoms: _310  and  _311
REMARK  124  A    between atoms: _311  and  _312
REMARK  125  A    between atoms: _315  and  _317
REMARK  126  A    between atoms: _317  and  _318
REMARK  127  A    between atoms: _317  and  _320
REMARK  128  A    between atoms: _320  and  _321
REMARK  129  A    between atoms: _326  and  _327
REMARK  130  A    between atoms: _329  and  _331
REMARK  131  A    between atoms: _331  and  _332
REMARK  132  A    between atoms: _331  and  _334
REMARK  133  A    between atoms: _334  and  _335
REMARK  134  A    between atoms: _340  and  _342
REMARK  135  A    between atoms: _342  and  _343
REMARK  136  A    between atoms: _342  and  _345
REMARK  137  A    between atoms: _345  and  _346
REMARK  138  A    between atoms: _349  and  _351
REMARK  139  A    between atoms: _351  and  _352
REMARK  140  A    between atoms: _351  and  _354
REMARK  141  A    between atoms: _354  and  _355
REMARK  142  A    between atoms: _360  and  _362
REMARK  143  A    between atoms: _362  and  _363
REMARK  144  A    between atoms: _362  and  _365
REMARK  145  A    between atoms: _365  and  _366
REMARK  146  A    between atoms: _376  and  _378
REMARK  147  A    between atoms: _378  and  _379
REMARK  148  A    between atoms: _378  and  _381
REMARK  149  A    between atoms: _381  and  _382
REMARK  150  A    between atoms: _388  and  _390
REMARK  151  A    between atoms: _390  and  _391
REMARK  152  A    between atoms: _390  and  _393
REMARK  153  A    between atoms: _393  and  _394
REMARK  154  A    between atoms: _397  and  _399
REMARK  155  A    between atoms: _399  and  _400
REMARK  156  A    between atoms: _399  and  _402
REMARK  157  A    between atoms: _402  and  _403
REMARK  158  A    between atoms: _406  and  _408
REMARK  159  A    between atoms: _408  and  _409
REMARK  160  A    between atoms: _408  and  _411
REMARK  161  A    between atoms: _411  and  _412
REMARK  162  A    between atoms: _412  and  _413
REMARK  163  A    between atoms: _413  and  _414
REMARK  164  A    between atoms: _423  and  _425
REMARK  165  A    between atoms: _425  and  _426
REMARK  166  A    between atoms: _425  and  _428
REMARK  167  A    between atoms: _428  and  _429
REMARK  168  A    between atoms: _434  and  _436
REMARK  169  A    between atoms: _436  and  _437
REMARK  170  A    between atoms: _436  and  _439
REMARK  171  A    between atoms: _439  and  _440
REMARK  172  A    between atoms: _441  and  _442
REMARK  173  A    between atoms: _451  and  _453
REMARK  174  A    between atoms: _453  and  _454
REMARK  175  A    between atoms: _457  and  _459
REMARK  176  A    between atoms: _459  and  _460
REMARK  177  A    between atoms: _462  and  _464
REMARK  178  A    between atoms: _464  and  _465
REMARK  179  A    between atoms: _464  and  _467
REMARK  180  A    between atoms: _467  and  _468
REMARK  181  A    between atoms: _478  and  _480
REMARK  182  A    between atoms: _480  and  _481
REMARK  183  A    between atoms: _480  and  _483
REMARK  184  A    between atoms: _483  and  _484
REMARK  185  A    between atoms: _485  and  _487
REMARK  186  A    between atoms: _487  and  _488
REMARK  187  A    between atoms: _491  and  _493
REMARK  188  A    between atoms: _493  and  _494
REMARK  189  A    between atoms: _493  and  _496
REMARK  190  A    between atoms: _496  and  _497
REMARK  191  A    between atoms: _500  and  _502
REMARK  192  A    between atoms: _502  and  _503
REMARK  193  A    between atoms: _502  and  _505
REMARK  194  A    between atoms: _505  and  _506
REMARK  195  A    between atoms: _511  and  _512
REMARK  196  A    between atoms: _514  and  _516
REMARK  197  A    between atoms: _516  and  _517
REMARK  198  A    between atoms: _516  and  _519
REMARK  199  A    between atoms: _519  and  _520
REMARK  200  A    between atoms: _522  and  _524
REMARK  201  A    between atoms: _524  and  _525
REMARK  202  A    between atoms: _524  and  _527
REMARK  203  A    between atoms: _527  and  _528
REMARK  204  A    between atoms: _534  and  _536
REMARK  205  A    between atoms: _536  and  _537
REMARK  206  A    between atoms: _536  and  _539
REMARK  207  A    between atoms: _539  and  _540
REMARK  208  A    between atoms: _543  and  _545
REMARK  209  A    between atoms: _545  and  _546
REMARK  210  A    between atoms: _545  and  _548
REMARK  211  A    between atoms: _548  and  _549
REMARK  212  A    between atoms: _551  and  _553
REMARK  213  A    between atoms: _553  and  _554
REMARK  214  A    between atoms: _553  and  _556
REMARK  215  A    between atoms: _556  and  _557
REMARK  216  A    between atoms: _562  and  _564
REMARK  217  A    between atoms: _564  and  _565
REMARK  218  A    between atoms: _564  and  _567
REMARK  219  A    between atoms: _567  and  _568
REMARK  220  A    between atoms: _571  and  _573
REMARK  221  A    between atoms: _573  and  _574
REMARK  222  A    between atoms: _573  and  _576
REMARK  223  A    between atoms: _576  and  _577
REMARK  224  A    between atoms: _582  and  _583
REMARK  225  A    between atoms: _585  and  _587
REMARK  226  A    between atoms: _587  and  _588
REMARK  227  A    between atoms: _587  and  _590
REMARK  228  A    between atoms: _590  and  _591
REMARK  229  A    between atoms: _596  and  _597
REMARK  230  A    between atoms: _599  and  _601
REMARK  231  A    between atoms: _601  and  _602
REMARK  232  A    between atoms: _601  and  _604
REMARK  233  A    between atoms: _607  and  _609
REMARK  234  A    between atoms: _609  and  _610
REMARK  235  A    between atoms: _609  and  _612
REMARK  236  A    between atoms: _612  and  _613
REMARK  237  A    between atoms: _618  and  _620
REMARK  238  A    between atoms: _620  and  _621
REMARK  239  A    between atoms: _624  and  _626
REMARK  240  A    between atoms: _626  and  _627
REMARK  241  A    between atoms: _626  and  _629
REMARK  242  A    between atoms: _629  and  _630
REMARK  243  A    between atoms: _630  and  _631
REMARK  244  A    between atoms: _631  and  _632
REMARK  245  A    between atoms: _641  and  _643
REMARK  246  A    between atoms: _643  and  _644
REMARK  247  A    between atoms: _643  and  _646
REMARK  248  A    between atoms: _646  and  _647
REMARK  249  A    between atoms: _650  and  _652
REMARK  250  A    between atoms: _652  and  _653
REMARK  251  A    between atoms: _652  and  _655
REMARK  252  A    between atoms: _655  and  _656
REMARK  253  A    between atoms: _659  and  _661
REMARK  254  A    between atoms: _661  and  _662
REMARK  255  A    between atoms: _661  and  _664
REMARK  256  A    between atoms: _664  and  _665
REMARK                            x       y       z     vdW  Elec       q    Type
REMARK                         _______ _______ _______ _____ _____    ______ ____
ROOT
ATOM      1  CG  TRP A   1       0.454  27.216  12.960  0.00  0.00    -0.002 A 
ATOM      2  CD2 TRP A   1       0.470  26.077  13.795  0.00  0.00    +0.013 A 
ATOM      3  CE3 TRP A   1      -0.226  25.712  14.954  0.00  0.00    +0.001 A 
ATOM      4  CZ3 TRP A   1       0.055  24.483  15.540  0.00  0.00    +0.000 A 
ATOM      5  CH2 TRP A   1       1.024  23.612  15.018  0.00  0.00    +0.001 A 
ATOM      6  CZ2 TRP A   1       1.734  23.956  13.888  0.00  0.00    +0.017 A 
ATOM      7  CE2 TRP A   1       1.452  25.186  13.301  0.00  0.00    +0.056 A 
ATOM      8  NE1 TRP A   1       1.989  25.772  12.180  0.00  0.00    -0.352 N 
ATOM      9  HE1 TRP A   1       2.739  25.364  11.586  0.00  0.00    +0.166 HD
ATOM     10  CD1 TRP A   1       1.378  26.980  11.970  0.00  0.00    +0.068 A 
ENDROOT
BRANCH   1  11
ATOM     11  CB  TRP A   1      -0.427  28.440  12.994  0.00  0.00    +0.053 C 
BRANCH  11  12
ATOM     12  CA  TRP A   1      -0.294  29.351  14.246  0.00  0.00    +0.137 C 
BRANCH  12  13
ATOM     13  N   TRP A   1      -1.311  30.392  14.149  0.00  0.00    -0.239 NA
ATOM     14  H   TRP A   1      -2.063  30.285  13.439  0.00  0.00    +0.142 HD
ENDBRANCH  12  13
BRANCH  12  15
ATOM     15  C   TRP A   1       1.148  29.768  14.402  0.00  0.00    +0.224 C 
ATOM     16  O   TRP A   1       1.798  29.354  15.353  0.00  0.00    -0.287 OA
ENDBRANCH  12  15
ENDBRANCH  11  12
ENDBRANCH   1  11
TORSDOF 4
REMARK  Name = ../refined-set-2016/1b6h/1b6h_pocket.pdb
REMARK  256 active torsions:
REMARK  status: ('A' for Active; 'I' for Inactive)
REMARK    1  A    between atoms: _1  and  _3
REMARK    2  A    between atoms: _3  and  _4
REMARK    3  A    between atoms: _3  and  _6
REMARK    4  A    between atoms: _6  and  _7
REMARK    5  A    between atoms: _12  and  _14
REMARK    6  A    between atoms: _14  and  _15
REMARK    7  A    between atoms: _17  and  _19
REMARK    8  A    between atoms: _19  and  _20
REMARK    9  A    between atoms: _19  and  _22
REMARK   10  A    between atoms: _22  and  _23
REMARK   11  A    between atoms: _23  and  _24
REMARK   12  A    between atoms: _29  and  _31
REMARK   13  A    between atoms: _31  and  _32
REMARK   14  A    between atoms: _31  and  _34
REMARK   15  A    between atoms: _34  and  _35
REMARK   16  A    between atoms: _38  and  _40
REMARK   17  A    between atoms: _40  and  _41
REMARK   18  A    between atoms: _40  and  _43
REMARK   19  A    between atoms: _43  and  _44
REMARK   20  A    between atoms: _44  and  _45
REMARK   21  A    between atoms: _48  and  _50
REMARK   22  A    between atoms: _50  and  _51
REMARK   23  A    between atoms: _53  and  _55
REMARK   24  A    between atoms: _55  and  _56
REMARK   25  A    between atoms: _55  and  _58
REMARK   26  A    between atoms: _62  and  _63
REMARK   27  A    between atoms: _68  and  _70
REMARK   28  A    between atoms: _70  and  _71
REMARK   29  A    between atoms: _70  and  _73
REMARK   30  A    between atoms: _73  and  _74
REMARK   31  A    between atoms: _74  and  _75
REMARK   32  A    between atoms: _78  and  _80
REMARK   33  A    between atoms: _80  and  _81
REMARK   34  A    between atoms: _80  and  _83
REMARK   35  A    between atoms: _83  and  _84
REMARK   36  A    between atoms: _86  and  _88
REMARK   37  A    between atoms: _88  and  _89
REMARK   38  A    between atoms: _88  and  _91
REMARK   39  A    between atoms: _91  and  _92
REMARK   40  A    between atoms: _97  and  _99
REMARK   41  A    between atoms: _99  and  _100
REMARK   42  A    between atoms: _99  and  _102
REMARK   43  A    between atoms: _102  and  _103
REMARK   44  A    between atoms: _103  and  _104
REMARK   45  A    between atoms: _104  and  _105
REMARK   46  A    between atoms: _115  and  _116
REMARK   47  A    between atoms: _121  and  _123
REMARK   48  A    between atoms: _123  and  _124
REMARK   49  A    between atoms: _123  and  _126
REMARK   50  A    between atoms: _126  and  _127
REMARK   51  A    between atoms: _132  and  _133
REMARK   52  A    between atoms: _135  and  _137
REMARK   53  A    between atoms: _137  and  _138
REMARK   54  A    between atoms: _137  and  _140
REMARK   55  A    between atoms: _140  and  _141
REMARK   56  A    between atoms: _146  and  _147
REMARK   57  A    between atoms: _149  and  _151
REMARK   58  A    between atoms: _151  and  _152
REMARK   59  A    between atoms: _151  and  _154
REMARK   60  A    between atoms: _157  and  _159
REMARK   61  A    between atoms: _159  and  _160
REMARK   62  A    between atoms: _159  and  _162
REMARK   63  A    between atoms: _162  and  _163
REMARK   64  A    between atoms: _169  and  _170
REMARK   65  A    between atoms: _175  and  _177
REMARK   66  A    between atoms: _177  and  _178
REMARK   67  A    between atoms: _177  and  _180
REMARK   68  A    between atoms: _180  and  _181
REMARK   69  A    between atoms: _183  and  _185
REMARK   70  A    between atoms: _185  and  _186
REMARK   71  A    between atoms: _185  and  _188
REMARK   72  A    between atoms: _188  and  _189
REMARK   73  A    between atoms: _189  and  _190
REMARK   74  A    between atoms: _193  and  _195
REMARK   75  A    between atoms: _195  and  _196
REMARK   76  A    between atoms: _195  and  _198
REMARK   77  A    between atoms: _198  and  _199
REMARK   78  A    between atoms: _204  and  _205
REMARK   79  A    between atoms: _207  and  _209
REMARK   80  A    between atoms: _209  and  _210
REMARK   81  A    between atoms: _209  and  _212
REMARK   82  A    between atoms: _212  and  _213
REMARK   83  A    between atoms: _218  and  _220
REMARK   84  A    between atoms: _220  and  _221
REMARK   85  A    between atoms: _220  and  _223
REMARK   86  A    between atoms: _223  and  _224
REMARK   87  A    between atoms: _229  and  _231
REMARK   88  A    between atoms: _231  and  _232
REMARK   89  A    between atoms: _231  and  _234
REMARK   90  A    between atoms: _234  and  _235
REMARK   91  A    between atoms: _235  and  _236
REMARK   92  A    between atoms: _238  and  _240
REMARK   93  A    between atoms: _240  and  _241
REMARK   94  A    between atoms: _240  and  _243
REMARK   95  A    between atoms: _243  and  _244
REMARK   96  A    between atoms: _249  and  _250
REMARK   97  A    between atoms: _252  and  _254
REMARK   98  A    between atoms: _254  and  _255
REMARK   99  A    between atoms: _254  and  _257
REMARK  100  A    between atoms: _257  and  _258
REMARK  101  A    between atoms: _261  and  _263
REMARK  102  A    between atoms: _263  and  _264
REMARK  103  A    between atoms: _263  and  _266
REMARK  104  A    between atoms: _266  and  _267
REMARK  105  A    between atoms: _267  and  _484
REMARK  106  A    between atoms: _268  and  _270
REMARK  107  A    between atoms: _270  and  _271
REMARK  108  A    between atoms: _270  and  _273
REMARK  109  A    between atoms: _273  and  _274
REMARK  110  A    between atoms: _277  and  _279
REMARK  111  A    between atoms: _279  and  _280
REMARK  112  A    between atoms: _279  and  _282
REMARK  113  A    between atoms: _282  and  _283
REMARK  114  A    between atoms: _288  and  _289
REMARK  115  A    between atoms: _291  and  _293
REMARK  116  A    between atoms: _293  and  _294
REMARK  117  A    between atoms: _293  and  _296
REMARK  118  A    between atoms: _296  and  _297
REMARK  119  A    between atoms: _302  and  _303
REMARK  120  A    between atoms: _305  and  _307
REMARK  121  A    between atoms: _307  and  _308
REMARK  122  A    between atoms: _307  and  _310
REMARK  123  A    between atoms: _310  and  _311
REMARK  124  A    between atoms: _311  and  _312
REMARK  125  A    between atoms: _315  and  _317
REMARK  126  A    between atoms: _317  and  _318
REMARK  127  A    between atoms: _317  and  _320
REMARK  128  A    between atoms: _320  and  _321
REMARK  129  A    between atoms: _326  and  _327
REMARK  130  A    between atoms: _329  and  _331
REMARK  131  A    between atoms: _331  and  _332
REMARK  132  A    between atoms: _331  and  _334
REMARK  133  A    between atoms: _334  and  _335
REMARK  134  A    between atoms: _340  and  _342
REMARK  135  A    between atoms: _342  and  _343
REMARK  136  A    between atoms: _342  and  _345
REMARK  137  A    between atoms: _345  and  _346
REMARK  138  A    between atoms: _349  and  _351
REMARK  139  A    between atoms: _351  and  _352
REMARK  140  A    between atoms: _351  and  _354
REMARK  141  A    between atoms: _354  and  _355
REMARK  142  A    between atoms: _360  and  _362
REMARK  143  A    between atoms: _362  and  _363
REMARK  144  A    between atoms: _362  and  _365
REMARK  145  A    between atoms: _365  and  _366
REMARK  146  A    between atoms: _376  and  _378
REMARK  147  A    between atoms: _378  and  _379
REMARK  148  A    between atoms: _378  and  _381
REMARK  149  A    between atoms: _381  and  _382
REMARK  150  A    between atoms: _388  and  _390
REMARK  151  A    between atoms: _390  and  _391
REMARK  152  A    between atoms: _390  and  _393
REMARK  153  A    between atoms: _393  and  _394
REMARK  154  A    between atoms: _397  and  _399
REMARK  155  A    between atoms: _399  and  _400
REMARK  156  A    between atoms: _399  and  _402
REMARK  157  A    between atoms: _402  and  _403
REMARK  158  A    between atoms: _406  and  _408
REMARK  159  A    between atoms: _408  and  _409
REMARK  160  A    between atoms: _408  and  _411
REMARK  161  A    between atoms: _411  and  _412
REMARK  162  A    between atoms: _412  and  _413
REMARK  163  A    between atoms: _413  and  _414
REMARK  164  A    between atoms: _423  and  _425
REMARK  165  A    between atoms: _425  and  _426
REMARK  166  A    between atoms: _425  and  _428
REMARK  167  A    between atoms: _428  and  _429
REMARK  168  A    between atoms: _434  and  _436
REMARK  169  A    between atoms: _436  and  _437
REMARK  170  A    between atoms: _436  and  _439
REMARK  171  A    between atoms: _439  and  _440
REMARK  172  A    between atoms: _441  and  _442
REMARK  173  A    between atoms: _451  and  _453
REMARK  174  A    between atoms: _453  and  _454
REMARK  175  A    between atoms: _457  and  _459
REMARK  176  A    between atoms: _459  and  _460
REMARK  177  A    between atoms: _462  and  _464
REMARK  178  A    between atoms: _464  and  _465
REMARK  179  A    between atoms: _464  and  _467
REMARK  180  A    between atoms: _467  and  _468
REMARK  181  A    between atoms: _478  and  _480
REMARK  182  A    between atoms: _480  and  _481
REMARK  183  A    between atoms: _480  and  _483
REMARK  184  A    between atoms: _483  and  _484
REMARK  185  A    between atoms: _485  and  _487
REMARK  186  A    between atoms: _487  and  _488
REMARK  187  A    between atoms: _491  and  _493
REMARK  188  A    between atoms: _493  and  _494
REMARK  189  A    between atoms: _493  and  _496
REMARK  190  A    between atoms: _496  and  _497
REMARK  191  A    between atoms: _500  and  _502
REMARK  192  A    between atoms: _502  and  _503
REMARK  193  A    between atoms: _502  and  _505
REMARK  194  A    between atoms: _505  and  _506
REMARK  195  A    between atoms: _511  and  _512
REMARK  196  A    between atoms: _514  and  _516
REMARK  197  A    between atoms: _516  and  _517
REMARK  198  A    between atoms: _516  and  _519
REMARK  199  A    between atoms: _519  and  _520
REMARK  200  A    between atoms: _522  and  _524
REMARK  201  A    between atoms: _524  and  _525
REMARK  202  A    between atoms: _524  and  _527
REMARK  203  A    between atoms: _527  and  _528
REMARK  204  A    between atoms: _534  and  _536
REMARK  205  A    between atoms: _536  and  _537
REMARK  206  A    between atoms: _536  and  _539
REMARK  207  A    between atoms: _539  and  _540
REMARK  208  A    between atoms: _543  and  _545
REMARK  209  A    between atoms: _545  and  _546
REMARK  210  A    between atoms: _545  and  _548
REMARK  211  A    between atoms: _548  and  _549
REMARK  212  A    between atoms: _551  and  _553
REMARK  213  A    between atoms: _553  and  _554
REMARK  214  A    between atoms: _553  and  _556
REMARK  215  A    between atoms: _556  and  _557
REMARK  216  A    between atoms: _562  and  _564
REMARK  217  A    between atoms: _564  and  _565
REMARK  218  A    between atoms: _564  and  _567
REMARK  219  A    between atoms: _567  and  _568
REMARK  220  A    between atoms: _571  and  _573
REMARK  221  A    between atoms: _573  and  _574
REMARK  222  A    between atoms: _573  and  _576
REMARK  223  A    between atoms: _576  and  _577
REMARK  224  A    between atoms: _582  and  _583
REMARK  225  A    between atoms: _585  and  _587
REMARK  226  A    between atoms: _587  and  _588
REMARK  227  A    between atoms: _587  and  _590
REMARK  228  A    between atoms: _590  and  _591
REMARK  229  A    between atoms: _596  and  _597
REMARK  230  A    between atoms: _599  and  _601
REMARK  231  A    between atoms: _601  and  _602
REMARK  232  A    between atoms: _601  and  _604
REMARK  233  A    between atoms: _607  and  _609
REMARK  234  A    between atoms: _609  and  _610
REMARK  235  A    between atoms: _609  and  _612
REMARK  236  A    between atoms: _612  and  _613
REMARK  237  A    between atoms: _618  and  _620
REMARK  238  A    between atoms: _620  and  _621
REMARK  239  A    between atoms: _624  and  _626
REMARK  240  A    between atoms: _626  and  _627
REMARK  241  A    between atoms: _626  and  _629
REMARK  242  A    between atoms: _629  and  _630
REMARK  243  A    between atoms: _630  and  _631
REMARK  244  A    between atoms: _631  and  _632
REMARK  245  A    between atoms: _641  and  _643
REMARK  246  A    between atoms: _643  and  _644
REMARK  247  A    between atoms: _643  and  _646
REMARK  248  A    between atoms: _646  and  _647
REMARK  249  A    between atoms: _650  and  _652
REMARK  250  A    between atoms: _652  and  _653
REMARK  251  A    between atoms: _652  and  _655
REMARK  252  A    between atoms: _655  and  _656
REMARK  253  A    between atoms: _659  and  _661
REMARK  254  A    between atoms: _661  and  _662
REMARK  255  A    between atoms: _661  and  _664
REMARK  256  A    between atoms: _664  and  _665
REMARK                            x       y       z     vdW  Elec       q    Type
REMARK                         _______ _______ _______ _____ _____    ______ ____
ROOT
ATOM      1  CA  LEU A   2       4.588  28.567  18.209  0.00  0.00    +0.149 C 
ENDROOT
BRANCH   1   4
ATOM      2  C   PHE A   1       2.708  29.852  19.035  0.00  0.00    +0.239 C 
ATOM      3  O   PHE A   1       3.039  29.603  20.201  0.00  0.00    -0.274 OA
ATOM      4  N   LEU A   2       3.375  29.344  17.989  0.00  0.00    -0.297 N 
ATOM      5  H   LEU A   2       3.027  29.504  17.022  0.00  0.00    +0.150 HD
BRANCH   2   6
ATOM      6  CA  PHE A   1       1.467  30.685  18.752  0.00  0.00    +0.149 C 
BRANCH   6   7
ATOM      7  N   PHE A   1       1.662  31.661  17.683  0.00  0.00    -0.238 NA
ATOM      8  H   PHE A   1       0.989  31.669  16.890  0.00  0.00    +0.142 HD
ENDBRANCH   6   7
BRANCH   6   9
ATOM      9  CB  PHE A   1       0.358  29.750  18.284  0.00  0.00    +0.053 C 
BRANCH   9  10
ATOM     10  CG  PHE A   1       0.034  28.550  19.112  0.00  0.00    -0.020 A 
ATOM     11  CD2 PHE A   1      -0.456  28.655  20.402  0.00  0.00    -0.004 A 
ATOM     12  CE2 PHE A   1      -0.775  27.510  21.120  0.00  0.00    -0.000 A 
ATOM     13  CZ  PHE A   1      -0.616  26.266  20.561  0.00  0.00    -0.000 A 
ATOM     14  CE1 PHE A   1      -0.124  26.139  19.272  0.00  0.00    -0.000 A 
ATOM     15  CD1 PHE A   1       0.182  27.285  18.561  0.00  0.00    -0.004 A 
ENDBRANCH   9  10
ENDBRANCH   6   9
ENDBRANCH   2   6
ENDBRANCH   1   4
BRANCH   1  16
ATOM     16  C   LEU A   2       5.719  29.445  18.751  0.00  0.00    +0.241 C 
ATOM     17  O   LEU A   2       6.499  29.017  19.615  0.00  0.00    -0.273 OA
ATOM     18  N   ASP A   3       5.812  30.676  18.241  0.00  0.00    -0.298 N 
ATOM     19  H   ASP A   3       5.159  30.992  17.496  0.00  0.00    +0.150 HD
BRANCH  18  20
ATOM     20  CA  ASP A   3       6.858  31.576  18.755  0.00  0.00    +0.148 C 
BRANCH  20  21
ATOM     21  C   ASP A   3       6.587  31.878  20.241  0.00  0.00    +0.227 C 
ATOM     22  O   ASP A   3       7.526  31.891  21.033  0.00  0.00    -0.286 OA
ENDBRANCH  20  21
BRANCH  20  23
ATOM     23  CB  ASP A   3       6.840  32.878  17.993  0.00  0.00    +0.142 C 
BRANCH  23  24
ATOM     24  CG  ASP A   3       8.142  33.649  18.086  0.00  0.00    +0.367 C 
ATOM     25  OD2 ASP A   3       9.066  33.303  18.834  0.00  0.00    -0.246 OA
ATOM     26  OD1 ASP A   3       8.264  34.643  17.343  0.00  0.00    -0.246 OA
ENDBRANCH  23  24
ENDBRANCH  20  23
ENDBRANCH  18  20
ENDBRANCH   1  16
BRANCH   1  27
ATOM     27  CB  LEU A   2       5.019  27.830  16.930  0.00  0.00    +0.029 C 
BRANCH  27  28
ATOM     28  CG  LEU A   2       3.924  26.912  16.330  0.00  0.00    +0.002 C 
ATOM     29  CD2 LEU A   2       3.411  25.852  17.340  0.00  0.00    +0.000 C 
ATOM     30  CD1 LEU A   2       4.507  26.169  15.135  0.00  0.00    +0.000 C 
ENDBRANCH  27  28
ENDBRANCH   1  27
TORSDOF 12
REMARK  Name = ../refined-set-2016/1b6h/1b6h_pocket.pdb
REMARK  256 active torsions:
REMARK  status: ('A' for Active; 'I' for Inactive)
REMARK    1  A    between atoms: _1  and  _3
REMARK    2  A    between atoms: _3  and  _4
REMARK    3  A    between atoms: _3  and  _6
REMARK    4  A    between atoms: _6  and  _7
REMARK    5  A    between atoms: _12  and  _14
REMARK    6  A    between atoms: _14  and  _15
REMARK    7  A    between atoms: _17  and  _19
REMARK    8  A    between atoms: _19  and  _20
REMARK    9  A    between atoms: _19  and  _22
REMARK   10  A    between atoms: _22  and  _23
REMARK   11  A    between atoms: _23  and  _24
REMARK   12  A    between atoms: _29  and  _31
REMARK   13  A    between atoms: _31  and  _32
REMARK   14  A    between atoms: _31  and  _34
REMARK   15  A    between atoms: _34  and  _35
REMARK   16  A    between atoms: _38  and  _40
REMARK   17  A    between atoms: _40  and  _41
REMARK   18  A    between atoms: _40  and  _43
REMARK   19  A    between atoms: _43  and  _44
REMARK   20  A    between atoms: _44  and  _45
REMARK   21  A    between atoms: _48  and  _50
REMARK   22  A    between atoms: _50  and  _51
REMARK   23  A    between atoms: _53  and  _55
REMARK   24  A    between atoms: _55  and  _56
REMARK   25  A    between atoms: _55  and  _58
REMARK   26  A    between atoms: _62  and  _63
REMARK   27  A    between atoms: _68  and  _70
REMARK   28  A    between atoms: _70  and  _71
REMARK   29  A    between atoms: _70  and  _73
REMARK   30  A    between atoms: _73  and  _74
REMARK   31  A    between atoms: _74  and  _75
REMARK   32  A    between atoms: _78  and  _80
REMARK   33  A    between atoms: _80  and  _81
REMARK   34  A    between atoms: _80  and  _83
REMARK   35  A    between atoms: _83  and  _84
REMARK   36  A    between atoms: _86  and  _88
REMARK   37  A    between atoms: _88  and  _89
REMARK   38  A    between atoms: _88  and  _91
REMARK   39  A    between atoms: _91  and  _92
REMARK   40  A    between atoms: _97  and  _99
REMARK   41  A    between atoms: _99  and  _100
REMARK   42  A    between atoms: _99  and  _102
REMARK   43  A    between atoms: _102  and  _103
REMARK   44  A    between atoms: _103  and  _104
REMARK   45  A    between atoms: _104  and  _105
REMARK   46  A    between atoms: _115  and  _116
REMARK   47  A    between atoms: _121  and  _123
REMARK   48  A    between atoms: _123  and  _124
REMARK   49  A    between atoms: _123  and  _126
REMARK   50  A    between atoms: _126  and  _127
REMARK   51  A    between atoms: _132  and  _133
REMARK   52  A    between atoms: _135  and  _137
REMARK   53  A    between atoms: _137  and  _138
REMARK   54  A    between atoms: _137  and  _140
REMARK   55  A    between atoms: _140  and  _141
REMARK   56  A    between atoms: _146  and  _147
REMARK   57  A    between atoms: _149  and  _151
REMARK   58  A    between atoms: _151  and  _152
REMARK   59  A    between atoms: _151  and  _154
REMARK   60  A    between atoms: _157  and  _159
REMARK   61  A    between atoms: _159  and  _160
REMARK   62  A    between atoms: _159  and  _162
REMARK   63  A    between atoms: _162  and  _163
REMARK   64  A    between atoms: _169  and  _170
REMARK   65  A    between atoms: _175  and  _177
REMARK   66  A    between atoms: _177  and  _178
REMARK   67  A    between atoms: _177  and  _180
REMARK   68  A    between atoms: _180  and  _181
REMARK   69  A    between atoms: _183  and  _185
REMARK   70  A    between atoms: _185  and  _186
REMARK   71  A    between atoms: _185  and  _188
REMARK   72  A    between atoms: _188  and  _189
REMARK   73  A    between atoms: _189  and  _190
REMARK   74  A    between atoms: _193  and  _195
REMARK   75  A    between atoms: _195  and  _196
REMARK   76  A    between atoms: _195  and  _198
REMARK   77  A    between atoms: _198  and  _199
REMARK   78  A    between atoms: _204  and  _205
REMARK   79  A    between atoms: _207  and  _209
REMARK   80  A    between atoms: _209  and  _210
REMARK   81  A    between atoms: _209  and  _212
REMARK   82  A    between atoms: _212  and  _213
REMARK   83  A    between atoms: _218  and  _220
REMARK   84  A    between atoms: _220  and  _221
REMARK   85  A    between atoms: _220  and  _223
REMARK   86  A    between atoms: _223  and  _224
REMARK   87  A    between atoms: _229  and  _231
REMARK   88  A    between atoms: _231  and  _232
REMARK   89  A    between atoms: _231  and  _234
REMARK   90  A    between atoms: _234  and  _235
REMARK   91  A    between atoms: _235  and  _236
REMARK   92  A    between atoms: _238  and  _240
REMARK   93  A    between atoms: _240  and  _241
REMARK   94  A    between atoms: _240  and  _243
REMARK   95  A    between atoms: _243  and  _244
REMARK   96  A    between atoms: _249  and  _250
REMARK   97  A    between atoms: _252  and  _254
REMARK   98  A    between atoms: _254  and  _255
REMARK   99  A    between atoms: _254  and  _257
REMARK  100  A    between atoms: _257  and  _258
REMARK  101  A    between atoms: _261  and  _263
REMARK  102  A    between atoms: _263  and  _264
REMARK  103  A    between atoms: _263  and  _266
REMARK  104  A    between atoms: _266  and  _267
REMARK  105  A    between atoms: _267  and  _484
REMARK  106  A    between atoms: _268  and  _270
REMARK  107  A    between atoms: _270  and  _271
REMARK  108  A    between atoms: _270  and  _273
REMARK  109  A    between atoms: _273  and  _274
REMARK  110  A    between atoms: _277  and  _279
REMARK  111  A    between atoms: _279  and  _280
REMARK  112  A    between atoms: _279  and  _282
REMARK  113  A    between atoms: _282  and  _283
REMARK  114  A    between atoms: _288  and  _289
REMARK  115  A    between atoms: _291  and  _293
REMARK  116  A    between atoms: _293  and  _294
REMARK  117  A    between atoms: _293  and  _296
REMARK  118  A    between atoms: _296  and  _297
REMARK  119  A    between atoms: _302  and  _303
REMARK  120  A    between atoms: _305  and  _307
REMARK  121  A    between atoms: _307  and  _308
REMARK  122  A    between atoms: _307  and  _310
REMARK  123  A    between atoms: _310  and  _311
REMARK  124  A    between atoms: _311  and  _312
REMARK  125  A    between atoms: _315  and  _317
REMARK  126  A    between atoms: _317  and  _318
REMARK  127  A    between atoms: _317  and  _320
REMARK  128  A    between atoms: _320  and  _321
REMARK  129  A    between atoms: _326  and  _327
REMARK  130  A    between atoms: _329  and  _331
REMARK  131  A    between atoms: _331  and  _332
REMARK  132  A    between atoms: _331  and  _334
REMARK  133  A    between atoms: _334  and  _335
REMARK  134  A    between atoms: _340  and  _342
REMARK  135  A    between atoms: _342  and  _343
REMARK  136  A    between atoms: _342  and  _345
REMARK  137  A    between atoms: _345  and  _346
REMARK  138  A    between atoms: _349  and  _351
REMARK  139  A    between atoms: _351  and  _352
REMARK  140  A    between atoms: _351  and  _354
REMARK  141  A    between atoms: _354  and  _355
REMARK  142  A    between atoms: _360  and  _362
REMARK  143  A    between atoms: _362  and  _363
REMARK  144  A    between atoms: _362  and  _365
REMARK  145  A    between atoms: _365  and  _366
REMARK  146  A    between atoms: _376  and  _378
REMARK  147  A    between atoms: _378  and  _379
REMARK  148  A    between atoms: _378  and  _381
REMARK  149  A    between atoms: _381  and  _382
REMARK  150  A    between atoms: _388  and  _390
REMARK  151  A    between atoms: _390  and  _391
REMARK  152  A    between atoms: _390  and  _393
REMARK  153  A    between atoms: _393  and  _394
REMARK  154  A    between atoms: _397  and  _399
REMARK  155  A    between atoms: _399  and  _400
REMARK  156  A    between atoms: _399  and  _402
REMARK  157  A    between atoms: _402  and  _403
REMARK  158  A    between atoms: _406  and  _408
REMARK  159  A    between atoms: _408  and  _409
REMARK  160  A    between atoms: _408  and  _411
REMARK  161  A    between atoms: _411  and  _412
REMARK  162  A    between atoms: _412  and  _413
REMARK  163  A    between atoms: _413  and  _414
REMARK  164  A    between atoms: _423  and  _425
REMARK  165  A    between atoms: _425  and  _426
REMARK  166  A    between atoms: _425  and  _428
REMARK  167  A    between atoms: _428  and  _429
REMARK  168  A    between atoms: _434  and  _436
REMARK  169  A    between atoms: _436  and  _437
REMARK  170  A    between atoms: _436  and  _439
REMARK  171  A    between atoms: _439  and  _440
REMARK  172  A    between atoms: _441  and  _442
REMARK  173  A    between atoms: _451  and  _453
REMARK  174  A    between atoms: _453  and  _454
REMARK  175  A    between atoms: _457  and  _459
REMARK  176  A    between atoms: _459  and  _460
REMARK  177  A    between atoms: _462  and  _464
REMARK  178  A    between atoms: _464  and  _465
REMARK  179  A    between atoms: _464  and  _467
REMARK  180  A    between atoms: _467  and  _468
REMARK  181  A    between atoms: _478  and  _480
REMARK  182  A    between atoms: _480  and  _481
REMARK  183  A    between atoms: _480  and  _483
REMARK  184  A    between atoms: _483  and  _484
REMARK  185  A    between atoms: _485  and  _487
REMARK  186  A    between atoms: _487  and  _488
REMARK  187  A    between atoms: _491  and  _493
REMARK  188  A    between atoms: _493  and  _494
REMARK  189  A    between atoms: _493  and  _496
REMARK  190  A    between atoms: _496  and  _497
REMARK  191  A    between atoms: _500  and  _502
REMARK  192  A    between atoms: _502  and  _503
REMARK  193  A    between atoms: _502  and  _505
REMARK  194  A    between atoms: _505  and  _506
REMARK  195  A    between atoms: _511  and  _512
REMARK  196  A    between atoms: _514  and  _516
REMARK  197  A    between atoms: _516  and  _517
REMARK  198  A    between atoms: _516  and  _519
REMARK  199  A    between atoms: _519  and  _520
REMARK  200  A    between atoms: _522  and  _524
REMARK  201  A    between atoms: _524  and  _525
REMARK  202  A    between atoms: _524  and  _527
REMARK  203  A    between atoms: _527  and  _528
REMARK  204  A    between atoms: _534  and  _536
REMARK  205  A    between atoms: _536  and  _537
REMARK  206  A    between atoms: _536  and  _539
REMARK  207  A    between atoms: _539  and  _540
REMARK  208  A    between atoms: _543  and  _545
REMARK  209  A    between atoms: _545  and  _546
REMARK  210  A    between atoms: _545  and  _548
REMARK  211  A    between atoms: _548  and  _549
REMARK  212  A    between atoms: _551  and  _553
REMARK  213  A    between atoms: _553  and  _554
REMARK  214  A    between atoms: _553  and  _556
REMARK  215  A    between atoms: _556  and  _557
REMARK  216  A    between atoms: _562  and  _564
REMARK  217  A    between atoms: _564  and  _565
REMARK  218  A    between atoms: _564  and  _567
REMARK  219  A    between atoms: _567  and  _568
REMARK  220  A    between atoms: _571  and  _573
REMARK  221  A    between atoms: _573  and  _574
REMARK  222  A    between atoms: _573  and  _576
REMARK  223  A    between atoms: _576  and  _577
REMARK  224  A    between atoms: _582  and  _583
REMARK  225  A    between atoms: _585  and  _587
REMARK  226  A    between atoms: _587  and  _588
REMARK  227  A    between atoms: _587  and  _590
REMARK  228  A    between atoms: _590  and  _591
REMARK  229  A    between atoms: _596  and  _597
REMARK  230  A    between atoms: _599  and  _601
REMARK  231  A    between atoms: _601  and  _602
REMARK  232  A    between atoms: _601  and  _604
REMARK  233  A    between atoms: _607  and  _609
REMARK  234  A    between atoms: _609  and  _610
REMARK  235  A    between atoms: _609  and  _612
REMARK  236  A    between atoms: _612  and  _613
REMARK  237  A    between atoms: _618  and  _620
REMARK  238  A    between atoms: _620  and  _621
REMARK  239  A    between atoms: _624  and  _626
REMARK  240  A    between atoms: _626  and  _627
REMARK  241  A    between atoms: _626  and  _629
REMARK  242  A    between atoms: _629  and  _630
REMARK  243  A    between atoms: _630  and  _631
REMARK  244  A    between atoms: _631  and  _632
REMARK  245  A    between atoms: _641  and  _643
REMARK  246  A    between atoms: _643  and  _644
REMARK  247  A    between atoms: _643  and  _646
REMARK  248  A    between atoms: _646  and  _647
REMARK  249  A    between atoms: _650  and  _652
REMARK  250  A    between atoms: _652  and  _653
REMARK  251  A    between atoms: _652  and  _655
REMARK  252  A    between atoms: _655  and  _656
REMARK  253  A    between atoms: _659  and  _661
REMARK  254  A    between atoms: _661  and  _662
REMARK  255  A    between atoms: _661  and  _664
REMARK  256  A    between atoms: _664  and  _665
REMARK                            x       y       z     vdW  Elec       q    Type
REMARK                         _______ _______ _______ _____ _____    ______ ____
ROOT
ATOM      1  CA  ARG A   1       5.603  28.769  23.300  0.00  0.00    +0.145 C 
ENDROOT
BRANCH   1   2
ATOM      2  C   ARG A   1       7.119  28.689  23.383  0.00  0.00    +0.238 C 
ATOM      3  O   ARG A   1       7.618  28.380  24.460  0.00  0.00    -0.274 OA
ATOM      4  N   HIS A   2       7.833  28.953  22.289  0.00  0.00    -0.298 N 
ATOM      5  H   HIS A   2       7.356  29.183  21.394  0.00  0.00    +0.150 HD
BRANCH   4   6
ATOM      6  CA  HIS A   2       9.302  28.916  22.358  0.00  0.00    +0.143 C 
BRANCH   6   7
ATOM      7  C   HIS A   2       9.805  30.015  23.303  0.00  0.00    +0.227 C 
ATOM      8  O   HIS A   2      10.761  29.754  24.055  0.00  0.00    -0.286 OA
ENDBRANCH   6   7
BRANCH   6   9
ATOM      9  CB  HIS A   2       9.984  29.083  21.004  0.00  0.00    +0.075 C 
BRANCH   9  10
ATOM     10  CG  HIS A   2       9.986  27.760  20.251  0.00  0.00    +0.082 A 
ATOM     11  ND1 HIS A   2      10.856  26.753  20.596  0.00  0.00    -0.227 NA
ATOM     12  CE1 HIS A   2      10.643  25.698  19.804  0.00  0.00    +0.199 A 
ATOM     13  NE2 HIS A   2       9.674  26.029  18.962  0.00  0.00    -0.221 NA
ATOM     14  CD2 HIS A   2       9.230  27.304  19.231  0.00  0.00    +0.115 A 
ENDBRANCH   9  10
ENDBRANCH   6   9
ENDBRANCH   4   6
ENDBRANCH   1   2
BRANCH   1  15
ATOM     15  N   ARG A   1       5.206  29.927  22.486  0.00  0.00    -0.238 NA
ATOM     16  H   ARG A   1       4.712  29.779  21.583  0.00  0.00    +0.142 HD
ENDBRANCH   1  15
BRANCH   1  17
ATOM     17  CB  ARG A   1       5.011  27.475  22.714  0.00  0.00    +0.030 C 
BRANCH  17  18
ATOM     18  CG  ARG A   1       3.478  27.519  22.896  0.00  0.00    +0.045 C 
BRANCH  18  19
ATOM     19  CD  ARG A   1       2.781  26.471  22.030  0.00  0.00    +0.174 C 
BRANCH  19  20
ATOM     20  NE  ARG A   1       3.263  25.120  22.374  0.00  0.00    -0.265 N 
ATOM     21  HE  ARG A   1       3.771  24.983  23.271  0.00  0.00    +0.259 HD
ATOM     22  CZ  ARG A   1       3.071  24.068  21.577  0.00  0.00    +0.342 C 
ATOM     23  NH2 ARG A   1       3.542  22.864  21.930  0.00  0.00    -0.292 N 
ATOM     24 HH21 ARG A   1       4.058  22.750  22.826  0.00  0.00    +0.255 HD
ATOM     25 HH22 ARG A   1       3.392  22.044  21.308  0.00  0.00    +0.255 HD
ATOM     26  NH1 ARG A   1       2.449  24.203  20.414  0.00  0.00    -0.292 N 
ATOM     27 HH11 ARG A   1       2.104  25.137  20.114  0.00  0.00    +0.255 HD
ATOM     28 HH12 ARG A   1       2.306  23.375  19.802  0.00  0.00    +0.255 HD
ENDBRANCH  19  20
ENDBRANCH  18  19
ENDBRANCH  17  18
ENDBRANCH   1  17
TORSDOF 10
REMARK  Name = ../refined-set-2016/1b6h/1b6h_pocket.pdb
REMARK  256 active torsions:
REMARK  status: ('A' for Active; 'I' for Inactive)
REMARK    1  A    between atoms: _1  and  _3
REMARK    2  A    between atoms: _3  and  _4
REMARK    3  A    between atoms: _3  and  _6
REMARK    4  A    between atoms: _6  and  _7
REMARK    5  A    between atoms: _12  and  _14
REMARK    6  A    between atoms: _14  and  _15
REMARK    7  A    between atoms: _17  and  _19
REMARK    8  A    between atoms: _19  and  _20
REMARK    9  A    between atoms: _19  and  _22
REMARK   10  A    between atoms: _22  and  _23
REMARK   11  A    between atoms: _23  and  _24
REMARK   12  A    between atoms: _29  and  _31
REMARK   13  A    between atoms: _31  and  _32
REMARK   14  A    between atoms: _31  and  _34
REMARK   15  A    between atoms: _34  and  _35
REMARK   16  A    between atoms: _38  and  _40
REMARK   17  A    between atoms: _40  and  _41
REMARK   18  A    between atoms: _40  and  _43
REMARK   19  A    between atoms: _43  and  _44
REMARK   20  A    between atoms: _44  and  _45
REMARK   21  A    between atoms: _48  and  _50
REMARK   22  A    between atoms: _50  and  _51
REMARK   23  A    between atoms: _53  and  _55
REMARK   24  A    between atoms: _55  and  _56
REMARK   25  A    between atoms: _55  and  _58
REMARK   26  A    between atoms: _62  and  _63
REMARK   27  A    between atoms: _68  and  _70
REMARK   28  A    between atoms: _70  and  _71
REMARK   29  A    between atoms: _70  and  _73
REMARK   30  A    between atoms: _73  and  _74
REMARK   31  A    between atoms: _74  and  _75
REMARK   32  A    between atoms: _78  and  _80
REMARK   33  A    between atoms: _80  and  _81
REMARK   34  A    between atoms: _80  and  _83
REMARK   35  A    between atoms: _83  and  _84
REMARK   36  A    between atoms: _86  and  _88
REMARK   37  A    between atoms: _88  and  _89
REMARK   38  A    between atoms: _88  and  _91
REMARK   39  A    between atoms: _91  and  _92
REMARK   40  A    between atoms: _97  and  _99
REMARK   41  A    between atoms: _99  and  _100
REMARK   42  A    between atoms: _99  and  _102
REMARK   43  A    between atoms: _102  and  _103
REMARK   44  A    between atoms: _103  and  _104
REMARK   45  A    between atoms: _104  and  _105
REMARK   46  A    between atoms: _115  and  _116
REMARK   47  A    between atoms: _121  and  _123
REMARK   48  A    between atoms: _123  and  _124
REMARK   49  A    between atoms: _123  and  _126
REMARK   50  A    between atoms: _126  and  _127
REMARK   51  A    between atoms: _132  and  _133
REMARK   52  A    between atoms: _135  and  _137
REMARK   53  A    between atoms: _137  and  _138
REMARK   54  A    between atoms: _137  and  _140
REMARK   55  A    between atoms: _140  and  _141
REMARK   56  A    between atoms: _146  and  _147
REMARK   57  A    between atoms: _149  and  _151
REMARK   58  A    between atoms: _151  and  _152
REMARK   59  A    between atoms: _151  and  _154
REMARK   60  A    between atoms: _157  and  _159
REMARK   61  A    between atoms: _159  and  _160
REMARK   62  A    between atoms: _159  and  _162
REMARK   63  A    between atoms: _162  and  _163
REMARK   64  A    between atoms: _169  and  _170
REMARK   65  A    between atoms: _175  and  _177
REMARK   66  A    between atoms: _177  and  _178
REMARK   67  A    between atoms: _177  and  _180
REMARK   68  A    between atoms: _180  and  _181
REMARK   69  A    between atoms: _183  and  _185
REMARK   70  A    between atoms: _185  and  _186
REMARK   71  A    between atoms: _185  and  _188
REMARK   72  A    between atoms: _188  and  _189
REMARK   73  A    between atoms: _189  and  _190
REMARK   74  A    between atoms: _193  and  _195
REMARK   75  A    between atoms: _195  and  _196
REMARK   76  A    between atoms: _195  and  _198
REMARK   77  A    between atoms: _198  and  _199
REMARK   78  A    between atoms: _204  and  _205
REMARK   79  A    between atoms: _207  and  _209
REMARK   80  A    between atoms: _209  and  _210
REMARK   81  A    between atoms: _209  and  _212
REMARK   82  A    between atoms: _212  and  _213
REMARK   83  A    between atoms: _218  and  _220
REMARK   84  A    between atoms: _220  and  _221
REMARK   85  A    between atoms: _220  and  _223
REMARK   86  A    between atoms: _223  and  _224
REMARK   87  A    between atoms: _229  and  _231
REMARK   88  A    between atoms: _231  and  _232
REMARK   89  A    between atoms: _231  and  _234
REMARK   90  A    between atoms: _234  and  _235
REMARK   91  A    between atoms: _235  and  _236
REMARK   92  A    between atoms: _238  and  _240
REMARK   93  A    between atoms: _240  and  _241
REMARK   94  A    between atoms: _240  and  _243
REMARK   95  A    between atoms: _243  and  _244
REMARK   96  A    between atoms: _249  and  _250
REMARK   97  A    between atoms: _252  and  _254
REMARK   98  A    between atoms: _254  and  _255
REMARK   99  A    between atoms: _254  and  _257
REMARK  100  A    between atoms: _257  and  _258
REMARK  101  A    between atoms: _261  and  _263
REMARK  102  A    between atoms: _263  and  _264
REMARK  103  A    between atoms: _263  and  _266
REMARK  104  A    between atoms: _266  and  _267
REMARK  105  A    between atoms: _267  and  _484
REMARK  106  A    between atoms: _268  and  _270
REMARK  107  A    between atoms: _270  and  _271
REMARK  108  A    between atoms: _270  and  _273
REMARK  109  A    between atoms: _273  and  _274
REMARK  110  A    between atoms: _277  and  _279
REMARK  111  A    between atoms: _279  and  _280
REMARK  112  A    between atoms: _279  and  _282
REMARK  113  A    between atoms: _282  and  _283
REMARK  114  A    between atoms: _288  and  _289
REMARK  115  A    between atoms: _291  and  _293
REMARK  116  A    between atoms: _293  and  _294
REMARK  117  A    between atoms: _293  and  _296
REMARK  118  A    between atoms: _296  and  _297
REMARK  119  A    between atoms: _302  and  _303
REMARK  120  A    between atoms: _305  and  _307
REMARK  121  A    between atoms: _307  and  _308
REMARK  122  A    between atoms: _307  and  _310
REMARK  123  A    between atoms: _310  and  _311
REMARK  124  A    between atoms: _311  and  _312
REMARK  125  A    between atoms: _315  and  _317
REMARK  126  A    between atoms: _317  and  _318
REMARK  127  A    between atoms: _317  and  _320
REMARK  128  A    between atoms: _320  and  _321
REMARK  129  A    between atoms: _326  and  _327
REMARK  130  A    between atoms: _329  and  _331
REMARK  131  A    between atoms: _331  and  _332
REMARK  132  A    between atoms: _331  and  _334
REMARK  133  A    between atoms: _334  and  _335
REMARK  134  A    between atoms: _340  and  _342
REMARK  135  A    between atoms: _342  and  _343
REMARK  136  A    between atoms: _342  and  _345
REMARK  137  A    between atoms: _345  and  _346
REMARK  138  A    between atoms: _349  and  _351
REMARK  139  A    between atoms: _351  and  _352
REMARK  140  A    between atoms: _351  and  _354
REMARK  141  A    between atoms: _354  and  _355
REMARK  142  A    between atoms: _360  and  _362
REMARK  143  A    between atoms: _362  and  _363
REMARK  144  A    between atoms: _362  and  _365
REMARK  145  A    between atoms: _365  and  _366
REMARK  146  A    between atoms: _376  and  _378
REMARK  147  A    between atoms: _378  and  _379
REMARK  148  A    between atoms: _378  and  _381
REMARK  149  A    between atoms: _381  and  _382
REMARK  150  A    between atoms: _388  and  _390
REMARK  151  A    between atoms: _390  and  _391
REMARK  152  A    between atoms: _390  and  _393
REMARK  153  A    between atoms: _393  and  _394
REMARK  154  A    between atoms: _397  and  _399
REMARK  155  A    between atoms: _399  and  _400
REMARK  156  A    between atoms: _399  and  _402
REMARK  157  A    between atoms: _402  and  _403
REMARK  158  A    between atoms: _406  and  _408
REMARK  159  A    between atoms: _408  and  _409
REMARK  160  A    between atoms: _408  and  _411
REMARK  161  A    between atoms: _411  and  _412
REMARK  162  A    between atoms: _412  and  _413
REMARK  163  A    between atoms: _413  and  _414
REMARK  164  A    between atoms: _423  and  _425
REMARK  165  A    between atoms: _425  and  _426
REMARK  166  A    between atoms: _425  and  _428
REMARK  167  A    between atoms: _428  and  _429
REMARK  168  A    between atoms: _434  and  _436
REMARK  169  A    between atoms: _436  and  _437
REMARK  170  A    between atoms: _436  and  _439
REMARK  171  A    between atoms: _439  and  _440
REMARK  172  A    between atoms: _441  and  _442
REMARK  173  A    between atoms: _451  and  _453
REMARK  174  A    between atoms: _453  and  _454
REMARK  175  A    between atoms: _457  and  _459
REMARK  176  A    between atoms: _459  and  _460
REMARK  177  A    between atoms: _462  and  _464
REMARK  178  A    between atoms: _464  and  _465
REMARK  179  A    between atoms: _464  and  _467
REMARK  180  A    between atoms: _467  and  _468
REMARK  181  A    between atoms: _478  and  _480
REMARK  182  A    between atoms: _480  and  _481
REMARK  183  A    between atoms: _480  and  _483
REMARK  184  A    between atoms: _483  and  _484
REMARK  185  A    between atoms: _485  and  _487
REMARK  186  A    between atoms: _487  and  _488
REMARK  187  A    between atoms: _491  and  _493
REMARK  188  A    between atoms: _493  and  _494
REMARK  189  A    between atoms: _493  and  _496
REMARK  190  A    between atoms: _496  and  _497
REMARK  191  A    between atoms: _500  and  _502
REMARK  192  A    between atoms: _502  and  _503
REMARK  193  A    between atoms: _502  and  _505
REMARK  194  A    between atoms: _505  and  _506
REMARK  195  A    between atoms: _511  and  _512
REMARK  196  A    between atoms: _514  and  _516
REMARK  197  A    between atoms: _516  and  _517
REMARK  198  A    between atoms: _516  and  _519
REMARK  199  A    between atoms: _519  and  _520
REMARK  200  A    between atoms: _522  and  _524
REMARK  201  A    between atoms: _524  and  _525
REMARK  202  A    between atoms: _524  and  _527
REMARK  203  A    between atoms: _527  and  _528
REMARK  204  A    between atoms: _534  and  _536
REMARK  205  A    between atoms: _536  and  _537
REMARK  206  A    between atoms: _536  and  _539
REMARK  207  A    between atoms: _539  and  _540
REMARK  208  A    between atoms: _543  and  _545
REMARK  209  A    between atoms: _545  and  _546
REMARK  210  A    between atoms: _545  and  _548
REMARK  211  A    between atoms: _548  and  _549
REMARK  212  A    between atoms: _551  and  _553
REMARK  213  A    between atoms: _553  and  _554
REMARK  214  A    between atoms: _553  and  _556
REMARK  215  A    between atoms: _556  and  _557
REMARK  216  A    between atoms: _562  and  _564
REMARK  217  A    between atoms: _564  and  _565
REMARK  218  A    between atoms: _564  and  _567
REMARK  219  A    between atoms: _567  and  _568
REMARK  220  A    between atoms: _571  and  _573
REMARK  221  A    between atoms: _573  and  _574
REMARK  222  A    between atoms: _573  and  _576
REMARK  223  A    between atoms: _576  and  _577
REMARK  224  A    between atoms: _582  and  _583
REMARK  225  A    between atoms: _585  and  _587
REMARK  226  A    between atoms: _587  and  _588
REMARK  227  A    between atoms: _587  and  _590
REMARK  228  A    between atoms: _590  and  _591
REMARK  229  A    between atoms: _596  and  _597
REMARK  230  A    between atoms: _599  and  _601
REMARK  231  A    between atoms: _601  and  _602
REMARK  232  A    between atoms: _601  and  _604
REMARK  233  A    between atoms: _607  and  _609
REMARK  234  A    between atoms: _609  and  _610
REMARK  235  A    between atoms: _609  and  _612
REMARK  236  A    between atoms: _612  and  _613
REMARK  237  A    between atoms: _618  and  _620
REMARK  238  A    between atoms: _620  and  _621
REMARK  239  A    between atoms: _624  and  _626
REMARK  240  A    between atoms: _626  and  _627
REMARK  241  A    between atoms: _626  and  _629
REMARK  242  A    between atoms: _629  and  _630
REMARK  243  A    between atoms: _630  and  _631
REMARK  244  A    between atoms: _631  and  _632
REMARK  245  A    between atoms: _641  and  _643
REMARK  246  A    between atoms: _643  and  _644
REMARK  247  A    between atoms: _643  and  _646
REMARK  248  A    between atoms: _646  and  _647
REMARK  249  A    between atoms: _650  and  _652
REMARK  250  A    between atoms: _652  and  _653
REMARK  251  A    between atoms: _652  and  _655
REMARK  252  A    between atoms: _655  and  _656
REMARK  253  A    between atoms: _659  and  _661
REMARK  254  A    between atoms: _661  and  _662
REMARK  255  A    between atoms: _661  and  _664
REMARK  256  A    between atoms: _664  and  _665
REMARK                            x       y       z     vdW  Elec       q    Type
REMARK                         _______ _______ _______ _____ _____    ______ ____
ROOT
ATOM      1  C   SER A   1       9.870  11.774  19.403  0.00  0.00    +0.241 C 
ATOM      2  N   PHE A   2       9.240  11.210  20.427  0.00  0.00    -0.298 N 
ATOM      3  H   PHE A   2       9.260  10.174  20.512  0.00  0.00    +0.150 HD
ATOM      4  O   SER A   1       9.802  12.975  19.127  0.00  0.00    -0.274 OA
ENDROOT
BRANCH   1   5
ATOM      5  CA  SER A   1      10.746  10.853  18.536  0.00  0.00    +0.174 C 
BRANCH   5   6
ATOM      6  N   SER A   1      11.279   9.750  19.334  0.00  0.00    -0.236 NA
ATOM      7  H   SER A   1      11.048   8.770  19.073  0.00  0.00    +0.142 HD
ENDBRANCH   5   6
BRANCH   5   8
ATOM      8  CB  SER A   1       9.859  10.360  17.380  0.00  0.00    +0.163 C 
BRANCH   8   9
ATOM      9  OG  SER A   1       9.645  11.434  16.486  0.00  0.00    -0.380 OA
ATOM     10  H   SER A   1      10.516  11.747  16.134  0.00  0.00    +0.211 HD
ENDBRANCH   8   9
ENDBRANCH   5   8
ENDBRANCH   1   5
BRANCH   2  11
ATOM     11  CA  PHE A   2       8.528  11.972  21.429  0.00  0.00    +0.141 C 
BRANCH  11  12
ATOM     12  C   PHE A   2       9.474  12.326  22.587  0.00  0.00    +0.227 C 
ATOM     13  O   PHE A   2       9.610  13.491  22.939  0.00  0.00    -0.286 OA
ENDBRANCH  11  12
BRANCH  11  14
ATOM     14  CB  PHE A   2       7.363  11.175  22.044  0.00  0.00    +0.054 C 
BRANCH  14  15
ATOM     15  CG  PHE A   2       6.096  11.320  21.221  0.00  0.00    -0.020 A 
ATOM     16  CD2 PHE A   2       5.073  12.136  21.669  0.00  0.00    -0.004 A 
ATOM     17  CE2 PHE A   2       3.907  12.282  20.929  0.00  0.00    -0.000 A 
ATOM     18  CZ  PHE A   2       3.795  11.651  19.690  0.00  0.00    -0.000 A 
ATOM     19  CE1 PHE A   2       4.826  10.837  19.247  0.00  0.00    -0.000 A 
ATOM     20  CD1 PHE A   2       5.991  10.675  20.011  0.00  0.00    -0.004 A 
ENDBRANCH  14  15
ENDBRANCH  11  14
ENDBRANCH   2  11
TORSDOF 8
REMARK  Name = ../refined-set-2016/1b6h/1b6h_pocket.pdb
REMARK  256 active torsions:
REMARK  status: ('A' for Active; 'I' for Inactive)
REMARK    1  A    between atoms: _1  and  _3
REMARK    2  A    between atoms: _3  and  _4
REMARK    3  A    between atoms: _3  and  _6
REMARK    4  A    between atoms: _6  and  _7
REMARK    5  A    between atoms: _12  and  _14
REMARK    6  A    between atoms: _14  and  _15
REMARK    7  A    between atoms: _17  and  _19
REMARK    8  A    between atoms: _19  and  _20
REMARK    9  A    between atoms: _19  and  _22
REMARK   10  A    between atoms: _22  and  _23
REMARK   11  A    between atoms: _23  and  _24
REMARK   12  A    between atoms: _29  and  _31
REMARK   13  A    between atoms: _31  and  _32
REMARK   14  A    between atoms: _31  and  _34
REMARK   15  A    between atoms: _34  and  _35
REMARK   16  A    between atoms: _38  and  _40
REMARK   17  A    between atoms: _40  and  _41
REMARK   18  A    between atoms: _40  and  _43
REMARK   19  A    between atoms: _43  and  _44
REMARK   20  A    between atoms: _44  and  _45
REMARK   21  A    between atoms: _48  and  _50
REMARK   22  A    between atoms: _50  and  _51
REMARK   23  A    between atoms: _53  and  _55
REMARK   24  A    between atoms: _55  and  _56
REMARK   25  A    between atoms: _55  and  _58
REMARK   26  A    between atoms: _62  and  _63
REMARK   27  A    between atoms: _68  and  _70
REMARK   28  A    between atoms: _70  and  _71
REMARK   29  A    between atoms: _70  and  _73
REMARK   30  A    between atoms: _73  and  _74
REMARK   31  A    between atoms: _74  and  _75
REMARK   32  A    between atoms: _78  and  _80
REMARK   33  A    between atoms: _80  and  _81
REMARK   34  A    between atoms: _80  and  _83
REMARK   35  A    between atoms: _83  and  _84
REMARK   36  A    between atoms: _86  and  _88
REMARK   37  A    between atoms: _88  and  _89
REMARK   38  A    between atoms: _88  and  _91
REMARK   39  A    between atoms: _91  and  _92
REMARK   40  A    between atoms: _97  and  _99
REMARK   41  A    between atoms: _99  and  _100
REMARK   42  A    between atoms: _99  and  _102
REMARK   43  A    between atoms: _102  and  _103
REMARK   44  A    between atoms: _103  and  _104
REMARK   45  A    between atoms: _104  and  _105
REMARK   46  A    between atoms: _115  and  _116
REMARK   47  A    between atoms: _121  and  _123
REMARK   48  A    between atoms: _123  and  _124
REMARK   49  A    between atoms: _123  and  _126
REMARK   50  A    between atoms: _126  and  _127
REMARK   51  A    between atoms: _132  and  _133
REMARK   52  A    between atoms: _135  and  _137
REMARK   53  A    between atoms: _137  and  _138
REMARK   54  A    between atoms: _137  and  _140
REMARK   55  A    between atoms: _140  and  _141
REMARK   56  A    between atoms: _146  and  _147
REMARK   57  A    between atoms: _149  and  _151
REMARK   58  A    between atoms: _151  and  _152
REMARK   59  A    between atoms: _151  and  _154
REMARK   60  A    between atoms: _157  and  _159
REMARK   61  A    between atoms: _159  and  _160
REMARK   62  A    between atoms: _159  and  _162
REMARK   63  A    between atoms: _162  and  _163
REMARK   64  A    between atoms: _169  and  _170
REMARK   65  A    between atoms: _175  and  _177
REMARK   66  A    between atoms: _177  and  _178
REMARK   67  A    between atoms: _177  and  _180
REMARK   68  A    between atoms: _180  and  _181
REMARK   69  A    between atoms: _183  and  _185
REMARK   70  A    between atoms: _185  and  _186
REMARK   71  A    between atoms: _185  and  _188
REMARK   72  A    between atoms: _188  and  _189
REMARK   73  A    between atoms: _189  and  _190
REMARK   74  A    between atoms: _193  and  _195
REMARK   75  A    between atoms: _195  and  _196
REMARK   76  A    between atoms: _195  and  _198
REMARK   77  A    between atoms: _198  and  _199
REMARK   78  A    between atoms: _204  and  _205
REMARK   79  A    between atoms: _207  and  _209
REMARK   80  A    between atoms: _209  and  _210
REMARK   81  A    between atoms: _209  and  _212
REMARK   82  A    between atoms: _212  and  _213
REMARK   83  A    between atoms: _218  and  _220
REMARK   84  A    between atoms: _220  and  _221
REMARK   85  A    between atoms: _220  and  _223
REMARK   86  A    between atoms: _223  and  _224
REMARK   87  A    between atoms: _229  and  _231
REMARK   88  A    between atoms: _231  and  _232
REMARK   89  A    between atoms: _231  and  _234
REMARK   90  A    between atoms: _234  and  _235
REMARK   91  A    between atoms: _235  and  _236
REMARK   92  A    between atoms: _238  and  _240
REMARK   93  A    between atoms: _240  and  _241
REMARK   94  A    between atoms: _240  and  _243
REMARK   95  A    between atoms: _243  and  _244
REMARK   96  A    between atoms: _249  and  _250
REMARK   97  A    between atoms: _252  and  _254
REMARK   98  A    between atoms: _254  and  _255
REMARK   99  A    between atoms: _254  and  _257
REMARK  100  A    between atoms: _257  and  _258
REMARK  101  A    between atoms: _261  and  _263
REMARK  102  A    between atoms: _263  and  _264
REMARK  103  A    between atoms: _263  and  _266
REMARK  104  A    between atoms: _266  and  _267
REMARK  105  A    between atoms: _267  and  _484
REMARK  106  A    between atoms: _268  and  _270
REMARK  107  A    between atoms: _270  and  _271
REMARK  108  A    between atoms: _270  and  _273
REMARK  109  A    between atoms: _273  and  _274
REMARK  110  A    between atoms: _277  and  _279
REMARK  111  A    between atoms: _279  and  _280
REMARK  112  A    between atoms: _279  and  _282
REMARK  113  A    between atoms: _282  and  _283
REMARK  114  A    between atoms: _288  and  _289
REMARK  115  A    between atoms: _291  and  _293
REMARK  116  A    between atoms: _293  and  _294
REMARK  117  A    between atoms: _293  and  _296
REMARK  118  A    between atoms: _296  and  _297
REMARK  119  A    between atoms: _302  and  _303
REMARK  120  A    between atoms: _305  and  _307
REMARK  121  A    between atoms: _307  and  _308
REMARK  122  A    between atoms: _307  and  _310
REMARK  123  A    between atoms: _310  and  _311
REMARK  124  A    between atoms: _311  and  _312
REMARK  125  A    between atoms: _315  and  _317
REMARK  126  A    between atoms: _317  and  _318
REMARK  127  A    between atoms: _317  and  _320
REMARK  128  A    between atoms: _320  and  _321
REMARK  129  A    between atoms: _326  and  _327
REMARK  130  A    between atoms: _329  and  _331
REMARK  131  A    between atoms: _331  and  _332
REMARK  132  A    between atoms: _331  and  _334
REMARK  133  A    between atoms: _334  and  _335
REMARK  134  A    between atoms: _340  and  _342
REMARK  135  A    between atoms: _342  and  _343
REMARK  136  A    between atoms: _342  and  _345
REMARK  137  A    between atoms: _345  and  _346
REMARK  138  A    between atoms: _349  and  _351
REMARK  139  A    between atoms: _351  and  _352
REMARK  140  A    between atoms: _351  and  _354
REMARK  141  A    between atoms: _354  and  _355
REMARK  142  A    between atoms: _360  and  _362
REMARK  143  A    between atoms: _362  and  _363
REMARK  144  A    between atoms: _362  and  _365
REMARK  145  A    between atoms: _365  and  _366
REMARK  146  A    between atoms: _376  and  _378
REMARK  147  A    between atoms: _378  and  _379
REMARK  148  A    between atoms: _378  and  _381
REMARK  149  A    between atoms: _381  and  _382
REMARK  150  A    between atoms: _388  and  _390
REMARK  151  A    between atoms: _390  and  _391
REMARK  152  A    between atoms: _390  and  _393
REMARK  153  A    between atoms: _393  and  _394
REMARK  154  A    between atoms: _397  and  _399
REMARK  155  A    between atoms: _399  and  _400
REMARK  156  A    between atoms: _399  and  _402
REMARK  157  A    between atoms: _402  and  _403
REMARK  158  A    between atoms: _406  and  _408
REMARK  159  A    between atoms: _408  and  _409
REMARK  160  A    between atoms: _408  and  _411
REMARK  161  A    between atoms: _411  and  _412
REMARK  162  A    between atoms: _412  and  _413
REMARK  163  A    between atoms: _413  and  _414
REMARK  164  A    between atoms: _423  and  _425
REMARK  165  A    between atoms: _425  and  _426
REMARK  166  A    between atoms: _425  and  _428
REMARK  167  A    between atoms: _428  and  _429
REMARK  168  A    between atoms: _434  and  _436
REMARK  169  A    between atoms: _436  and  _437
REMARK  170  A    between atoms: _436  and  _439
REMARK  171  A    between atoms: _439  and  _440
REMARK  172  A    between atoms: _441  and  _442
REMARK  173  A    between atoms: _451  and  _453
REMARK  174  A    between atoms: _453  and  _454
REMARK  175  A    between atoms: _457  and  _459
REMARK  176  A    between atoms: _459  and  _460
REMARK  177  A    between atoms: _462  and  _464
REMARK  178  A    between atoms: _464  and  _465
REMARK  179  A    between atoms: _464  and  _467
REMARK  180  A    between atoms: _467  and  _468
REMARK  181  A    between atoms: _478  and  _480
REMARK  182  A    between atoms: _480  and  _481
REMARK  183  A    between atoms: _480  and  _483
REMARK  184  A    between atoms: _483  and  _484
REMARK  185  A    between atoms: _485  and  _487
REMARK  186  A    between atoms: _487  and  _488
REMARK  187  A    between atoms: _491  and  _493
REMARK  188  A    between atoms: _493  and  _494
REMARK  189  A    between atoms: _493  and  _496
REMARK  190  A    between atoms: _496  and  _497
REMARK  191  A    between atoms: _500  and  _502
REMARK  192  A    between atoms: _502  and  _503
REMARK  193  A    between atoms: _502  and  _505
REMARK  194  A    between atoms: _505  and  _506
REMARK  195  A    between atoms: _511  and  _512
REMARK  196  A    between atoms: _514  and  _516
REMARK  197  A    between atoms: _516  and  _517
REMARK  198  A    between atoms: _516  and  _519
REMARK  199  A    between atoms: _519  and  _520
REMARK  200  A    between atoms: _522  and  _524
REMARK  201  A    between atoms: _524  and  _525
REMARK  202  A    between atoms: _524  and  _527
REMARK  203  A    between atoms: _527  and  _528
REMARK  204  A    between atoms: _534  and  _536
REMARK  205  A    between atoms: _536  and  _537
REMARK  206  A    between atoms: _536  and  _539
REMARK  207  A    between atoms: _539  and  _540
REMARK  208  A    between atoms: _543  and  _545
REMARK  209  A    between atoms: _545  and  _546
REMARK  210  A    between atoms: _545  and  _548
REMARK  211  A    between atoms: _548  and  _549
REMARK  212  A    between atoms: _551  and  _553
REMARK  213  A    between atoms: _553  and  _554
REMARK  214  A    between atoms: _553  and  _556
REMARK  215  A    between atoms: _556  and  _557
REMARK  216  A    between atoms: _562  and  _564
REMARK  217  A    between atoms: _564  and  _565
REMARK  218  A    between atoms: _564  and  _567
REMARK  219  A    between atoms: _567  and  _568
REMARK  220  A    between atoms: _571  and  _573
REMARK  221  A    between atoms: _573  and  _574
REMARK  222  A    between atoms: _573  and  _576
REMARK  223  A    between atoms: _576  and  _577
REMARK  224  A    between atoms: _582  and  _583
REMARK  225  A    between atoms: _585  and  _587
REMARK  226  A    between atoms: _587  and  _588
REMARK  227  A    between atoms: _587  and  _590
REMARK  228  A    between atoms: _590  and  _591
REMARK  229  A    between atoms: _596  and  _597
REMARK  230  A    between atoms: _599  and  _601
REMARK  231  A    between atoms: _601  and  _602
REMARK  232  A    between atoms: _601  and  _604
REMARK  233  A    between atoms: _607  and  _609
REMARK  234  A    between atoms: _609  and  _610
REMARK  235  A    between atoms: _609  and  _612
REMARK  236  A    between atoms: _612  and  _613
REMARK  237  A    between atoms: _618  and  _620
REMARK  238  A    between atoms: _620  and  _621
REMARK  239  A    between atoms: _624  and  _626
REMARK  240  A    between atoms: _626  and  _627
REMARK  241  A    between atoms: _626  and  _629
REMARK  242  A    between atoms: _629  and  _630
REMARK  243  A    between atoms: _630  and  _631
REMARK  244  A    between atoms: _631  and  _632
REMARK  245  A    between atoms: _641  and  _643
REMARK  246  A    between atoms: _643  and  _644
REMARK  247  A    between atoms: _643  and  _646
REMARK  248  A    between atoms: _646  and  _647
REMARK  249  A    between atoms: _650  and  _652
REMARK  250  A    between atoms: _652  and  _653
REMARK  251  A    between atoms: _652  and  _655
REMARK  252  A    between atoms: _655  and  _656
REMARK  253  A    between atoms: _659  and  _661
REMARK  254  A    between atoms: _661  and  _662
REMARK  255  A    between atoms: _661  and  _664
REMARK  256  A    between atoms: _664  and  _665
REMARK                            x       y       z     vdW  Elec       q    Type
REMARK                         _______ _______ _______ _____ _____    ______ ____
ROOT
ATOM      1  CA  THR A   1      11.635  16.625  22.936  0.00  0.00    +0.128 C 
ENDROOT
BRANCH   1   2
ATOM      2  N   THR A   1      12.091  15.249  22.867  0.00  0.00    -0.242 NA
ATOM      3  H   THR A   1      11.420  14.493  22.623  0.00  0.00    +0.141 HD
ENDBRANCH   1   2
BRANCH   1   4
ATOM      4  C   THR A   1      11.509  17.111  24.382  0.00  0.00    +0.201 C 
ATOM      5  O   THR A   1      11.300  18.315  24.507  0.00  0.00    -0.219 OA
ENDBRANCH   1   4
BRANCH   1   6
ATOM      6  CB  THR A   1      10.278  16.869  22.228  0.00  0.00    +0.129 C 
ATOM      7  CG2 THR A   1      10.341  16.395  20.773  0.00  0.00    +0.033 C 
BRANCH   6   8
ATOM      8  OG1 THR A   1       9.250  16.174  22.931  0.00  0.00    -0.383 OA
ATOM      9  HG1 THR A   1       9.453  15.205  22.937  0.00  0.00    +0.210 HD
ENDBRANCH   6   8
ENDBRANCH   1   6
TORSDOF 4
REMARK  Name = ../refined-set-2016/1b6h/1b6h_pocket.pdb
REMARK  256 active torsions:
REMARK  status: ('A' for Active; 'I' for Inactive)
REMARK    1  A    between atoms: _1  and  _3
REMARK    2  A    between atoms: _3  and  _4
REMARK    3  A    between atoms: _3  and  _6
REMARK    4  A    between atoms: _6  and  _7
REMARK    5  A    between atoms: _12  and  _14
REMARK    6  A    between atoms: _14  and  _15
REMARK    7  A    between atoms: _17  and  _19
REMARK    8  A    between atoms: _19  and  _20
REMARK    9  A    between atoms: _19  and  _22
REMARK   10  A    between atoms: _22  and  _23
REMARK   11  A    between atoms: _23  and  _24
REMARK   12  A    between atoms: _29  and  _31
REMARK   13  A    between atoms: _31  and  _32
REMARK   14  A    between atoms: _31  and  _34
REMARK   15  A    between atoms: _34  and  _35
REMARK   16  A    between atoms: _38  and  _40
REMARK   17  A    between atoms: _40  and  _41
REMARK   18  A    between atoms: _40  and  _43
REMARK   19  A    between atoms: _43  and  _44
REMARK   20  A    between atoms: _44  and  _45
REMARK   21  A    between atoms: _48  and  _50
REMARK   22  A    between atoms: _50  and  _51
REMARK   23  A    between atoms: _53  and  _55
REMARK   24  A    between atoms: _55  and  _56
REMARK   25  A    between atoms: _55  and  _58
REMARK   26  A    between atoms: _62  and  _63
REMARK   27  A    between atoms: _68  and  _70
REMARK   28  A    between atoms: _70  and  _71
REMARK   29  A    between atoms: _70  and  _73
REMARK   30  A    between atoms: _73  and  _74
REMARK   31  A    between atoms: _74  and  _75
REMARK   32  A    between atoms: _78  and  _80
REMARK   33  A    between atoms: _80  and  _81
REMARK   34  A    between atoms: _80  and  _83
REMARK   35  A    between atoms: _83  and  _84
REMARK   36  A    between atoms: _86  and  _88
REMARK   37  A    between atoms: _88  and  _89
REMARK   38  A    between atoms: _88  and  _91
REMARK   39  A    between atoms: _91  and  _92
REMARK   40  A    between atoms: _97  and  _99
REMARK   41  A    between atoms: _99  and  _100
REMARK   42  A    between atoms: _99  and  _102
REMARK   43  A    between atoms: _102  and  _103
REMARK   44  A    between atoms: _103  and  _104
REMARK   45  A    between atoms: _104  and  _105
REMARK   46  A    between atoms: _115  and  _116
REMARK   47  A    between atoms: _121  and  _123
REMARK   48  A    between atoms: _123  and  _124
REMARK   49  A    between atoms: _123  and  _126
REMARK   50  A    between atoms: _126  and  _127
REMARK   51  A    between atoms: _132  and  _133
REMARK   52  A    between atoms: _135  and  _137
REMARK   53  A    between atoms: _137  and  _138
REMARK   54  A    between atoms: _137  and  _140
REMARK   55  A    between atoms: _140  and  _141
REMARK   56  A    between atoms: _146  and  _147
REMARK   57  A    between atoms: _149  and  _151
REMARK   58  A    between atoms: _151  and  _152
REMARK   59  A    between atoms: _151  and  _154
REMARK   60  A    between atoms: _157  and  _159
REMARK   61  A    between atoms: _159  and  _160
REMARK   62  A    between atoms: _159  and  _162
REMARK   63  A    between atoms: _162  and  _163
REMARK   64  A    between atoms: _169  and  _170
REMARK   65  A    between atoms: _175  and  _177
REMARK   66  A    between atoms: _177  and  _178
REMARK   67  A    between atoms: _177  and  _180
REMARK   68  A    between atoms: _180  and  _181
REMARK   69  A    between atoms: _183  and  _185
REMARK   70  A    between atoms: _185  and  _186
REMARK   71  A    between atoms: _185  and  _188
REMARK   72  A    between atoms: _188  and  _189
REMARK   73  A    between atoms: _189  and  _190
REMARK   74  A    between atoms: _193  and  _195
REMARK   75  A    between atoms: _195  and  _196
REMARK   76  A    between atoms: _195  and  _198
REMARK   77  A    between atoms: _198  and  _199
REMARK   78  A    between atoms: _204  and  _205
REMARK   79  A    between atoms: _207  and  _209
REMARK   80  A    between atoms: _209  and  _210
REMARK   81  A    between atoms: _209  and  _212
REMARK   82  A    between atoms: _212  and  _213
REMARK   83  A    between atoms: _218  and  _220
REMARK   84  A    between atoms: _220  and  _221
REMARK   85  A    between atoms: _220  and  _223
REMARK   86  A    between atoms: _223  and  _224
REMARK   87  A    between atoms: _229  and  _231
REMARK   88  A    between atoms: _231  and  _232
REMARK   89  A    between atoms: _231  and  _234
REMARK   90  A    between atoms: _234  and  _235
REMARK   91  A    between atoms: _235  and  _236
REMARK   92  A    between atoms: _238  and  _240
REMARK   93  A    between atoms: _240  and  _241
REMARK   94  A    between atoms: _240  and  _243
REMARK   95  A    between atoms: _243  and  _244
REMARK   96  A    between atoms: _249  and  _250
REMARK   97  A    between atoms: _252  and  _254
REMARK   98  A    between atoms: _254  and  _255
REMARK   99  A    between atoms: _254  and  _257
REMARK  100  A    between atoms: _257  and  _258
REMARK  101  A    between atoms: _261  and  _263
REMARK  102  A    between atoms: _263  and  _264
REMARK  103  A    between atoms: _263  and  _266
REMARK  104  A    between atoms: _266  and  _267
REMARK  105  A    between atoms: _267  and  _484
REMARK  106  A    between atoms: _268  and  _270
REMARK  107  A    between atoms: _270  and  _271
REMARK  108  A    between atoms: _270  and  _273
REMARK  109  A    between atoms: _273  and  _274
REMARK  110  A    between atoms: _277  and  _279
REMARK  111  A    between atoms: _279  and  _280
REMARK  112  A    between atoms: _279  and  _282
REMARK  113  A    between atoms: _282  and  _283
REMARK  114  A    between atoms: _288  and  _289
REMARK  115  A    between atoms: _291  and  _293
REMARK  116  A    between atoms: _293  and  _294
REMARK  117  A    between atoms: _293  and  _296
REMARK  118  A    between atoms: _296  and  _297
REMARK  119  A    between atoms: _302  and  _303
REMARK  120  A    between atoms: _305  and  _307
REMARK  121  A    between atoms: _307  and  _308
REMARK  122  A    between atoms: _307  and  _310
REMARK  123  A    between atoms: _310  and  _311
REMARK  124  A    between atoms: _311  and  _312
REMARK  125  A    between atoms: _315  and  _317
REMARK  126  A    between atoms: _317  and  _318
REMARK  127  A    between atoms: _317  and  _320
REMARK  128  A    between atoms: _320  and  _321
REMARK  129  A    between atoms: _326  and  _327
REMARK  130  A    between atoms: _329  and  _331
REMARK  131  A    between atoms: _331  and  _332
REMARK  132  A    between atoms: _331  and  _334
REMARK  133  A    between atoms: _334  and  _335
REMARK  134  A    between atoms: _340  and  _342
REMARK  135  A    between atoms: _342  and  _343
REMARK  136  A    between atoms: _342  and  _345
REMARK  137  A    between atoms: _345  and  _346
REMARK  138  A    between atoms: _349  and  _351
REMARK  139  A    between atoms: _351  and  _352
REMARK  140  A    between atoms: _351  and  _354
REMARK  141  A    between atoms: _354  and  _355
REMARK  142  A    between atoms: _360  and  _362
REMARK  143  A    between atoms: _362  and  _363
REMARK  144  A    between atoms: _362  and  _365
REMARK  145  A    between atoms: _365  and  _366
REMARK  146  A    between atoms: _376  and  _378
REMARK  147  A    between atoms: _378  and  _379
REMARK  148  A    between atoms: _378  and  _381
REMARK  149  A    between atoms: _381  and  _382
REMARK  150  A    between atoms: _388  and  _390
REMARK  151  A    between atoms: _390  and  _391
REMARK  152  A    between atoms: _390  and  _393
REMARK  153  A    between atoms: _393  and  _394
REMARK  154  A    between atoms: _397  and  _399
REMARK  155  A    between atoms: _399  and  _400
REMARK  156  A    between atoms: _399  and  _402
REMARK  157  A    between atoms: _402  and  _403
REMARK  158  A    between atoms: _406  and  _408
REMARK  159  A    between atoms: _408  and  _409
REMARK  160  A    between atoms: _408  and  _411
REMARK  161  A    between atoms: _411  and  _412
REMARK  162  A    between atoms: _412  and  _413
REMARK  163  A    between atoms: _413  and  _414
REMARK  164  A    between atoms: _423  and  _425
REMARK  165  A    between atoms: _425  and  _426
REMARK  166  A    between atoms: _425  and  _428
REMARK  167  A    between atoms: _428  and  _429
REMARK  168  A    between atoms: _434  and  _436
REMARK  169  A    between atoms: _436  and  _437
REMARK  170  A    between atoms: _436  and  _439
REMARK  171  A    between atoms: _439  and  _440
REMARK  172  A    between atoms: _441  and  _442
REMARK  173  A    between atoms: _451  and  _453
REMARK  174  A    between atoms: _453  and  _454
REMARK  175  A    between atoms: _457  and  _459
REMARK  176  A    between atoms: _459  and  _460
REMARK  177  A    between atoms: _462  and  _464
REMARK  178  A    between atoms: _464  and  _465
REMARK  179  A    between atoms: _464  and  _467
REMARK  180  A    between atoms: _467  and  _468
REMARK  181  A    between atoms: _478  and  _480
REMARK  182  A    between atoms: _480  and  _481
REMARK  183  A    between atoms: _480  and  _483
REMARK  184  A    between atoms: _483  and  _484
REMARK  185  A    between atoms: _485  and  _487
REMARK  186  A    between atoms: _487  and  _488
REMARK  187  A    between atoms: _491  and  _493
REMARK  188  A    between atoms: _493  and  _494
REMARK  189  A    between atoms: _493  and  _496
REMARK  190  A    between atoms: _496  and  _497
REMARK  191  A    between atoms: _500  and  _502
REMARK  192  A    between atoms: _502  and  _503
REMARK  193  A    between atoms: _502  and  _505
REMARK  194  A    between atoms: _505  and  _506
REMARK  195  A    between atoms: _511  and  _512
REMARK  196  A    between atoms: _514  and  _516
REMARK  197  A    between atoms: _516  and  _517
REMARK  198  A    between atoms: _516  and  _519
REMARK  199  A    between atoms: _519  and  _520
REMARK  200  A    between atoms: _522  and  _524
REMARK  201  A    between atoms: _524  and  _525
REMARK  202  A    between atoms: _524  and  _527
REMARK  203  A    between atoms: _527  and  _528
REMARK  204  A    between atoms: _534  and  _536
REMARK  205  A    between atoms: _536  and  _537
REMARK  206  A    between atoms: _536  and  _539
REMARK  207  A    between atoms: _539  and  _540
REMARK  208  A    between atoms: _543  and  _545
REMARK  209  A    between atoms: _545  and  _546
REMARK  210  A    between atoms: _545  and  _548
REMARK  211  A    between atoms: _548  and  _549
REMARK  212  A    between atoms: _551  and  _553
REMARK  213  A    between atoms: _553  and  _554
REMARK  214  A    between atoms: _553  and  _556
REMARK  215  A    between atoms: _556  and  _557
REMARK  216  A    between atoms: _562  and  _564
REMARK  217  A    between atoms: _564  and  _565
REMARK  218  A    between atoms: _564  and  _567
REMARK  219  A    between atoms: _567  and  _568
REMARK  220  A    between atoms: _571  and  _573
REMARK  221  A    between atoms: _573  and  _574
REMARK  222  A    between atoms: _573  and  _576
REMARK  223  A    between atoms: _576  and  _577
REMARK  224  A    between atoms: _582  and  _583
REMARK  225  A    between atoms: _585  and  _587
REMARK  226  A    between atoms: _587  and  _588
REMARK  227  A    between atoms: _587  and  _590
REMARK  228  A    between atoms: _590  and  _591
REMARK  229  A    between atoms: _596  and  _597
REMARK  230  A    between atoms: _599  and  _601
REMARK  231  A    between atoms: _601  and  _602
REMARK  232  A    between atoms: _601  and  _604
REMARK  233  A    between atoms: _607  and  _609
REMARK  234  A    between atoms: _609  and  _610
REMARK  235  A    between atoms: _609  and  _612
REMARK  236  A    between atoms: _612  and  _613
REMARK  237  A    between atoms: _618  and  _620
REMARK  238  A    between atoms: _620  and  _621
REMARK  239  A    between atoms: _624  and  _626
REMARK  240  A    between atoms: _626  and  _627
REMARK  241  A    between atoms: _626  and  _629
REMARK  242  A    between atoms: _629  and  _630
REMARK  243  A    between atoms: _630  and  _631
REMARK  244  A    between atoms: _631  and  _632
REMARK  245  A    between atoms: _641  and  _643
REMARK  246  A    between atoms: _643  and  _644
REMARK  247  A    between atoms: _643  and  _646
REMARK  248  A    between atoms: _646  and  _647
REMARK  249  A    between atoms: _650  and  _652
REMARK  250  A    between atoms: _652  and  _653
REMARK  251  A    between atoms: _652  and  _655
REMARK  252  A    between atoms: _655  and  _656
REMARK  253  A    between atoms: _659  and  _661
REMARK  254  A    between atoms: _661  and  _662
REMARK  255  A    between atoms: _661  and  _664
REMARK  256  A    between atoms: _664  and  _665
REMARK                            x       y       z     vdW  Elec       q    Type
REMARK                         _______ _______ _______ _____ _____    ______ ____
ROOT
ATOM      1  C   SER A   1      13.780  22.671  20.642  0.00  0.00    +0.241 C 
ATOM      2  N   ASN A   2      13.204  21.462  20.750  0.00  0.00    -0.298 N 
ATOM      3  H   ASN A   2      13.812  20.630  20.891  0.00  0.00    +0.150 HD
ATOM      4  O   SER A   1      13.090  23.670  20.396  0.00  0.00    -0.274 OA
ENDROOT
BRANCH   1   5
ATOM      5  CA  SER A   1      15.293  22.799  20.785  0.00  0.00    +0.174 C 
BRANCH   5   6
ATOM      6  N   SER A   1      15.841  21.634  21.472  0.00  0.00    -0.236 NA
ATOM      7  H   SER A   1      16.471  20.989  20.953  0.00  0.00    +0.142 HD
ENDBRANCH   5   6
BRANCH   5   8
ATOM      8  CB  SER A   1      15.949  22.927  19.397  0.00  0.00    +0.163 C 
BRANCH   8   9
ATOM      9  OG  SER A   1      15.645  21.773  18.598  0.00  0.00    -0.380 OA
ATOM     10  H   SER A   1      14.664  21.698  18.488  0.00  0.00    +0.211 HD
ENDBRANCH   8   9
ENDBRANCH   5   8
ENDBRANCH   1   5
BRANCH   2  11
ATOM     11  CA  ASN A   2      11.755  21.270  20.677  0.00  0.00    +0.146 C 
BRANCH  11  12
ATOM     12  C   ASN A   2      11.086  21.327  22.049  0.00  0.00    +0.227 C 
ATOM     13  O   ASN A   2       9.865  21.099  22.184  0.00  0.00    -0.286 OA
ENDBRANCH  11  12
BRANCH  11  14
ATOM     14  CB  ASN A   2      11.463  19.897  20.047  0.00  0.00    +0.112 C 
BRANCH  14  15
ATOM     15  CG  ASN A   2      11.983  19.750  18.622  0.00  0.00    +0.222 C 
ATOM     16  OD1 ASN A   2      12.898  18.965  18.359  0.00  0.00    -0.275 OA
ATOM     17  ND2 ASN A   2      11.384  20.478  17.685  0.00  0.00    -0.329 N 
ATOM     18 HD21 ASN A   2      10.616  21.129  17.944  0.00  0.00    +0.145 HD
ATOM     19 HD22 ASN A   2      11.683  20.396  16.692  0.00  0.00    +0.145 HD
ENDBRANCH  14  15
ENDBRANCH  11  14
ENDBRANCH   2  11
TORSDOF 8
REMARK  Name = ../refined-set-2016/1b6h/1b6h_pocket.pdb
REMARK  256 active torsions:
REMARK  status: ('A' for Active; 'I' for Inactive)
REMARK    1  A    between atoms: _1  and  _3
REMARK    2  A    between atoms: _3  and  _4
REMARK    3  A    between atoms: _3  and  _6
REMARK    4  A    between atoms: _6  and  _7
REMARK    5  A    between atoms: _12  and  _14
REMARK    6  A    between atoms: _14  and  _15
REMARK    7  A    between atoms: _17  and  _19
REMARK    8  A    between atoms: _19  and  _20
REMARK    9  A    between atoms: _19  and  _22
REMARK   10  A    between atoms: _22  and  _23
REMARK   11  A    between atoms: _23  and  _24
REMARK   12  A    between atoms: _29  and  _31
REMARK   13  A    between atoms: _31  and  _32
REMARK   14  A    between atoms: _31  and  _34
REMARK   15  A    between atoms: _34  and  _35
REMARK   16  A    between atoms: _38  and  _40
REMARK   17  A    between atoms: _40  and  _41
REMARK   18  A    between atoms: _40  and  _43
REMARK   19  A    between atoms: _43  and  _44
REMARK   20  A    between atoms: _44  and  _45
REMARK   21  A    between atoms: _48  and  _50
REMARK   22  A    between atoms: _50  and  _51
REMARK   23  A    between atoms: _53  and  _55
REMARK   24  A    between atoms: _55  and  _56
REMARK   25  A    between atoms: _55  and  _58
REMARK   26  A    between atoms: _62  and  _63
REMARK   27  A    between atoms: _68  and  _70
REMARK   28  A    between atoms: _70  and  _71
REMARK   29  A    between atoms: _70  and  _73
REMARK   30  A    between atoms: _73  and  _74
REMARK   31  A    between atoms: _74  and  _75
REMARK   32  A    between atoms: _78  and  _80
REMARK   33  A    between atoms: _80  and  _81
REMARK   34  A    between atoms: _80  and  _83
REMARK   35  A    between atoms: _83  and  _84
REMARK   36  A    between atoms: _86  and  _88
REMARK   37  A    between atoms: _88  and  _89
REMARK   38  A    between atoms: _88  and  _91
REMARK   39  A    between atoms: _91  and  _92
REMARK   40  A    between atoms: _97  and  _99
REMARK   41  A    between atoms: _99  and  _100
REMARK   42  A    between atoms: _99  and  _102
REMARK   43  A    between atoms: _102  and  _103
REMARK   44  A    between atoms: _103  and  _104
REMARK   45  A    between atoms: _104  and  _105
REMARK   46  A    between atoms: _115  and  _116
REMARK   47  A    between atoms: _121  and  _123
REMARK   48  A    between atoms: _123  and  _124
REMARK   49  A    between atoms: _123  and  _126
REMARK   50  A    between atoms: _126  and  _127
REMARK   51  A    between atoms: _132  and  _133
REMARK   52  A    between atoms: _135  and  _137
REMARK   53  A    between atoms: _137  and  _138
REMARK   54  A    between atoms: _137  and  _140
REMARK   55  A    between atoms: _140  and  _141
REMARK   56  A    between atoms: _146  and  _147
REMARK   57  A    between atoms: _149  and  _151
REMARK   58  A    between atoms: _151  and  _152
REMARK   59  A    between atoms: _151  and  _154
REMARK   60  A    between atoms: _157  and  _159
REMARK   61  A    between atoms: _159  and  _160
REMARK   62  A    between atoms: _159  and  _162
REMARK   63  A    between atoms: _162  and  _163
REMARK   64  A    between atoms: _169  and  _170
REMARK   65  A    between atoms: _175  and  _177
REMARK   66  A    between atoms: _177  and  _178
REMARK   67  A    between atoms: _177  and  _180
REMARK   68  A    between atoms: _180  and  _181
REMARK   69  A    between atoms: _183  and  _185
REMARK   70  A    between atoms: _185  and  _186
REMARK   71  A    between atoms: _185  and  _188
REMARK   72  A    between atoms: _188  and  _189
REMARK   73  A    between atoms: _189  and  _190
REMARK   74  A    between atoms: _193  and  _195
REMARK   75  A    between atoms: _195  and  _196
REMARK   76  A    between atoms: _195  and  _198
REMARK   77  A    between atoms: _198  and  _199
REMARK   78  A    between atoms: _204  and  _205
REMARK   79  A    between atoms: _207  and  _209
REMARK   80  A    between atoms: _209  and  _210
REMARK   81  A    between atoms: _209  and  _212
REMARK   82  A    between atoms: _212  and  _213
REMARK   83  A    between atoms: _218  and  _220
REMARK   84  A    between atoms: _220  and  _221
REMARK   85  A    between atoms: _220  and  _223
REMARK   86  A    between atoms: _223  and  _224
REMARK   87  A    between atoms: _229  and  _231
REMARK   88  A    between atoms: _231  and  _232
REMARK   89  A    between atoms: _231  and  _234
REMARK   90  A    between atoms: _234  and  _235
REMARK   91  A    between atoms: _235  and  _236
REMARK   92  A    between atoms: _238  and  _240
REMARK   93  A    between atoms: _240  and  _241
REMARK   94  A    between atoms: _240  and  _243
REMARK   95  A    between atoms: _243  and  _244
REMARK   96  A    between atoms: _249  and  _250
REMARK   97  A    between atoms: _252  and  _254
REMARK   98  A    between atoms: _254  and  _255
REMARK   99  A    between atoms: _254  and  _257
REMARK  100  A    between atoms: _257  and  _258
REMARK  101  A    between atoms: _261  and  _263
REMARK  102  A    between atoms: _263  and  _264
REMARK  103  A    between atoms: _263  and  _266
REMARK  104  A    between atoms: _266  and  _267
REMARK  105  A    between atoms: _267  and  _484
REMARK  106  A    between atoms: _268  and  _270
REMARK  107  A    between atoms: _270  and  _271
REMARK  108  A    between atoms: _270  and  _273
REMARK  109  A    between atoms: _273  and  _274
REMARK  110  A    between atoms: _277  and  _279
REMARK  111  A    between atoms: _279  and  _280
REMARK  112  A    between atoms: _279  and  _282
REMARK  113  A    between atoms: _282  and  _283
REMARK  114  A    between atoms: _288  and  _289
REMARK  115  A    between atoms: _291  and  _293
REMARK  116  A    between atoms: _293  and  _294
REMARK  117  A    between atoms: _293  and  _296
REMARK  118  A    between atoms: _296  and  _297
REMARK  119  A    between atoms: _302  and  _303
REMARK  120  A    between atoms: _305  and  _307
REMARK  121  A    between atoms: _307  and  _308
REMARK  122  A    between atoms: _307  and  _310
REMARK  123  A    between atoms: _310  and  _311
REMARK  124  A    between atoms: _311  and  _312
REMARK  125  A    between atoms: _315  and  _317
REMARK  126  A    between atoms: _317  and  _318
REMARK  127  A    between atoms: _317  and  _320
REMARK  128  A    between atoms: _320  and  _321
REMARK  129  A    between atoms: _326  and  _327
REMARK  130  A    between atoms: _329  and  _331
REMARK  131  A    between atoms: _331  and  _332
REMARK  132  A    between atoms: _331  and  _334
REMARK  133  A    between atoms: _334  and  _335
REMARK  134  A    between atoms: _340  and  _342
REMARK  135  A    between atoms: _342  and  _343
REMARK  136  A    between atoms: _342  and  _345
REMARK  137  A    between atoms: _345  and  _346
REMARK  138  A    between atoms: _349  and  _351
REMARK  139  A    between atoms: _351  and  _352
REMARK  140  A    between atoms: _351  and  _354
REMARK  141  A    between atoms: _354  and  _355
REMARK  142  A    between atoms: _360  and  _362
REMARK  143  A    between atoms: _362  and  _363
REMARK  144  A    between atoms: _362  and  _365
REMARK  145  A    between atoms: _365  and  _366
REMARK  146  A    between atoms: _376  and  _378
REMARK  147  A    between atoms: _378  and  _379
REMARK  148  A    between atoms: _378  and  _381
REMARK  149  A    between atoms: _381  and  _382
REMARK  150  A    between atoms: _388  and  _390
REMARK  151  A    between atoms: _390  and  _391
REMARK  152  A    between atoms: _390  and  _393
REMARK  153  A    between atoms: _393  and  _394
REMARK  154  A    between atoms: _397  and  _399
REMARK  155  A    between atoms: _399  and  _400
REMARK  156  A    between atoms: _399  and  _402
REMARK  157  A    between atoms: _402  and  _403
REMARK  158  A    between atoms: _406  and  _408
REMARK  159  A    between atoms: _408  and  _409
REMARK  160  A    between atoms: _408  and  _411
REMARK  161  A    between atoms: _411  and  _412
REMARK  162  A    between atoms: _412  and  _413
REMARK  163  A    between atoms: _413  and  _414
REMARK  164  A    between atoms: _423  and  _425
REMARK  165  A    between atoms: _425  and  _426
REMARK  166  A    between atoms: _425  and  _428
REMARK  167  A    between atoms: _428  and  _429
REMARK  168  A    between atoms: _434  and  _436
REMARK  169  A    between atoms: _436  and  _437
REMARK  170  A    between atoms: _436  and  _439
REMARK  171  A    between atoms: _439  and  _440
REMARK  172  A    between atoms: _441  and  _442
REMARK  173  A    between atoms: _451  and  _453
REMARK  174  A    between atoms: _453  and  _454
REMARK  175  A    between atoms: _457  and  _459
REMARK  176  A    between atoms: _459  and  _460
REMARK  177  A    between atoms: _462  and  _464
REMARK  178  A    between atoms: _464  and  _465
REMARK  179  A    between atoms: _464  and  _467
REMARK  180  A    between atoms: _467  and  _468
REMARK  181  A    between atoms: _478  and  _480
REMARK  182  A    between atoms: _480  and  _481
REMARK  183  A    between atoms: _480  and  _483
REMARK  184  A    between atoms: _483  and  _484
REMARK  185  A    between atoms: _485  and  _487
REMARK  186  A    between atoms: _487  and  _488
REMARK  187  A    between atoms: _491  and  _493
REMARK  188  A    between atoms: _493  and  _494
REMARK  189  A    between atoms: _493  and  _496
REMARK  190  A    between atoms: _496  and  _497
REMARK  191  A    between atoms: _500  and  _502
REMARK  192  A    between atoms: _502  and  _503
REMARK  193  A    between atoms: _502  and  _505
REMARK  194  A    between atoms: _505  and  _506
REMARK  195  A    between atoms: _511  and  _512
REMARK  196  A    between atoms: _514  and  _516
REMARK  197  A    between atoms: _516  and  _517
REMARK  198  A    between atoms: _516  and  _519
REMARK  199  A    between atoms: _519  and  _520
REMARK  200  A    between atoms: _522  and  _524
REMARK  201  A    between atoms: _524  and  _525
REMARK  202  A    between atoms: _524  and  _527
REMARK  203  A    between atoms: _527  and  _528
REMARK  204  A    between atoms: _534  and  _536
REMARK  205  A    between atoms: _536  and  _537
REMARK  206  A    between atoms: _536  and  _539
REMARK  207  A    between atoms: _539  and  _540
REMARK  208  A    between atoms: _543  and  _545
REMARK  209  A    between atoms: _545  and  _546
REMARK  210  A    between atoms: _545  and  _548
REMARK  211  A    between atoms: _548  and  _549
REMARK  212  A    between atoms: _551  and  _553
REMARK  213  A    between atoms: _553  and  _554
REMARK  214  A    between atoms: _553  and  _556
REMARK  215  A    between atoms: _556  and  _557
REMARK  216  A    between atoms: _562  and  _564
REMARK  217  A    between atoms: _564  and  _565
REMARK  218  A    between atoms: _564  and  _567
REMARK  219  A    between atoms: _567  and  _568
REMARK  220  A    between atoms: _571  and  _573
REMARK  221  A    between atoms: _573  and  _574
REMARK  222  A    between atoms: _573  and  _576
REMARK  223  A    between atoms: _576  and  _577
REMARK  224  A    between atoms: _582  and  _583
REMARK  225  A    between atoms: _585  and  _587
REMARK  226  A    between atoms: _587  and  _588
REMARK  227  A    between atoms: _587  and  _590
REMARK  228  A    between atoms: _590  and  _591
REMARK  229  A    between atoms: _596  and  _597
REMARK  230  A    between atoms: _599  and  _601
REMARK  231  A    between atoms: _601  and  _602
REMARK  232  A    between atoms: _601  and  _604
REMARK  233  A    between atoms: _607  and  _609
REMARK  234  A    between atoms: _609  and  _610
REMARK  235  A    between atoms: _609  and  _612
REMARK  236  A    between atoms: _612  and  _613
REMARK  237  A    between atoms: _618  and  _620
REMARK  238  A    between atoms: _620  and  _621
REMARK  239  A    between atoms: _624  and  _626
REMARK  240  A    between atoms: _626  and  _627
REMARK  241  A    between atoms: _626  and  _629
REMARK  242  A    between atoms: _629  and  _630
REMARK  243  A    between atoms: _630  and  _631
REMARK  244  A    between atoms: _631  and  _632
REMARK  245  A    between atoms: _641  and  _643
REMARK  246  A    between atoms: _643  and  _644
REMARK  247  A    between atoms: _643  and  _646
REMARK  248  A    between atoms: _646  and  _647
REMARK  249  A    between atoms: _650  and  _652
REMARK  250  A    between atoms: _652  and  _653
REMARK  251  A    between atoms: _652  and  _655
REMARK  252  A    between atoms: _655  and  _656
REMARK  253  A    between atoms: _659  and  _661
REMARK  254  A    between atoms: _661  and  _662
REMARK  255  A    between atoms: _661  and  _664
REMARK  256  A    between atoms: _664  and  _665
REMARK                            x       y       z     vdW  Elec       q    Type
REMARK                         _______ _______ _______ _____ _____    ______ ____
ROOT
ATOM      1  CA  THR A   1       8.430  24.181  24.603  0.00  0.00    +0.160 C 
ENDROOT
BRANCH   1   2
ATOM      2  N   THR A   1       9.284  23.023  24.323  0.00  0.00    -0.237 NA
ATOM      3  H   THR A   1       8.908  22.243  23.747  0.00  0.00    +0.142 HD
ENDBRANCH   1   2
BRANCH   1   4
ATOM      4  C   THR A   1       7.731  24.008  25.934  0.00  0.00    +0.227 C 
ATOM      5  O   THR A   1       7.037  24.918  26.400  0.00  0.00    -0.287 OA
ENDBRANCH   1   4
BRANCH   1   6
ATOM      6  CB  THR A   1       7.457  24.450  23.442  0.00  0.00    +0.134 C 
ATOM      7  CG2 THR A   1       8.303  25.022  22.285  0.00  0.00    +0.034 C 
BRANCH   6   8
ATOM      8  OG1 THR A   1       6.903  23.231  22.963  0.00  0.00    -0.383 OA
ATOM      9  HG1 THR A   1       6.413  22.782  23.697  0.00  0.00    +0.210 HD
ENDBRANCH   6   8
ENDBRANCH   1   6
TORSDOF 4
REMARK  Name = ../refined-set-2016/1b6h/1b6h_pocket.pdb
REMARK  256 active torsions:
REMARK  status: ('A' for Active; 'I' for Inactive)
REMARK    1  A    between atoms: _1  and  _3
REMARK    2  A    between atoms: _3  and  _4
REMARK    3  A    between atoms: _3  and  _6
REMARK    4  A    between atoms: _6  and  _7
REMARK    5  A    between atoms: _12  and  _14
REMARK    6  A    between atoms: _14  and  _15
REMARK    7  A    between atoms: _17  and  _19
REMARK    8  A    between atoms: _19  and  _20
REMARK    9  A    between atoms: _19  and  _22
REMARK   10  A    between atoms: _22  and  _23
REMARK   11  A    between atoms: _23  and  _24
REMARK   12  A    between atoms: _29  and  _31
REMARK   13  A    between atoms: _31  and  _32
REMARK   14  A    between atoms: _31  and  _34
REMARK   15  A    between atoms: _34  and  _35
REMARK   16  A    between atoms: _38  and  _40
REMARK   17  A    between atoms: _40  and  _41
REMARK   18  A    between atoms: _40  and  _43
REMARK   19  A    between atoms: _43  and  _44
REMARK   20  A    between atoms: _44  and  _45
REMARK   21  A    between atoms: _48  and  _50
REMARK   22  A    between atoms: _50  and  _51
REMARK   23  A    between atoms: _53  and  _55
REMARK   24  A    between atoms: _55  and  _56
REMARK   25  A    between atoms: _55  and  _58
REMARK   26  A    between atoms: _62  and  _63
REMARK   27  A    between atoms: _68  and  _70
REMARK   28  A    between atoms: _70  and  _71
REMARK   29  A    between atoms: _70  and  _73
REMARK   30  A    between atoms: _73  and  _74
REMARK   31  A    between atoms: _74  and  _75
REMARK   32  A    between atoms: _78  and  _80
REMARK   33  A    between atoms: _80  and  _81
REMARK   34  A    between atoms: _80  and  _83
REMARK   35  A    between atoms: _83  and  _84
REMARK   36  A    between atoms: _86  and  _88
REMARK   37  A    between atoms: _88  and  _89
REMARK   38  A    between atoms: _88  and  _91
REMARK   39  A    between atoms: _91  and  _92
REMARK   40  A    between atoms: _97  and  _99
REMARK   41  A    between atoms: _99  and  _100
REMARK   42  A    between atoms: _99  and  _102
REMARK   43  A    between atoms: _102  and  _103
REMARK   44  A    between atoms: _103  and  _104
REMARK   45  A    between atoms: _104  and  _105
REMARK   46  A    between atoms: _115  and  _116
REMARK   47  A    between atoms: _121  and  _123
REMARK   48  A    between atoms: _123  and  _124
REMARK   49  A    between atoms: _123  and  _126
REMARK   50  A    between atoms: _126  and  _127
REMARK   51  A    between atoms: _132  and  _133
REMARK   52  A    between atoms: _135  and  _137
REMARK   53  A    between atoms: _137  and  _138
REMARK   54  A    between atoms: _137  and  _140
REMARK   55  A    between atoms: _140  and  _141
REMARK   56  A    between atoms: _146  and  _147
REMARK   57  A    between atoms: _149  and  _151
REMARK   58  A    between atoms: _151  and  _152
REMARK   59  A    between atoms: _151  and  _154
REMARK   60  A    between atoms: _157  and  _159
REMARK   61  A    between atoms: _159  and  _160
REMARK   62  A    between atoms: _159  and  _162
REMARK   63  A    between atoms: _162  and  _163
REMARK   64  A    between atoms: _169  and  _170
REMARK   65  A    between atoms: _175  and  _177
REMARK   66  A    between atoms: _177  and  _178
REMARK   67  A    between atoms: _177  and  _180
REMARK   68  A    between atoms: _180  and  _181
REMARK   69  A    between atoms: _183  and  _185
REMARK   70  A    between atoms: _185  and  _186
REMARK   71  A    between atoms: _185  and  _188
REMARK   72  A    between atoms: _188  and  _189
REMARK   73  A    between atoms: _189  and  _190
REMARK   74  A    between atoms: _193  and  _195
REMARK   75  A    between atoms: _195  and  _196
REMARK   76  A    between atoms: _195  and  _198
REMARK   77  A    between atoms: _198  and  _199
REMARK   78  A    between atoms: _204  and  _205
REMARK   79  A    between atoms: _207  and  _209
REMARK   80  A    between atoms: _209  and  _210
REMARK   81  A    between atoms: _209  and  _212
REMARK   82  A    between atoms: _212  and  _213
REMARK   83  A    between atoms: _218  and  _220
REMARK   84  A    between atoms: _220  and  _221
REMARK   85  A    between atoms: _220  and  _223
REMARK   86  A    between atoms: _223  and  _224
REMARK   87  A    between atoms: _229  and  _231
REMARK   88  A    between atoms: _231  and  _232
REMARK   89  A    between atoms: _231  and  _234
REMARK   90  A    between atoms: _234  and  _235
REMARK   91  A    between atoms: _235  and  _236
REMARK   92  A    between atoms: _238  and  _240
REMARK   93  A    between atoms: _240  and  _241
REMARK   94  A    between atoms: _240  and  _243
REMARK   95  A    between atoms: _243  and  _244
REMARK   96  A    between atoms: _249  and  _250
REMARK   97  A    between atoms: _252  and  _254
REMARK   98  A    between atoms: _254  and  _255
REMARK   99  A    between atoms: _254  and  _257
REMARK  100  A    between atoms: _257  and  _258
REMARK  101  A    between atoms: _261  and  _263
REMARK  102  A    between atoms: _263  and  _264
REMARK  103  A    between atoms: _263  and  _266
REMARK  104  A    between atoms: _266  and  _267
REMARK  105  A    between atoms: _267  and  _484
REMARK  106  A    between atoms: _268  and  _270
REMARK  107  A    between atoms: _270  and  _271
REMARK  108  A    between atoms: _270  and  _273
REMARK  109  A    between atoms: _273  and  _274
REMARK  110  A    between atoms: _277  and  _279
REMARK  111  A    between atoms: _279  and  _280
REMARK  112  A    between atoms: _279  and  _282
REMARK  113  A    between atoms: _282  and  _283
REMARK  114  A    between atoms: _288  and  _289
REMARK  115  A    between atoms: _291  and  _293
REMARK  116  A    between atoms: _293  and  _294
REMARK  117  A    between atoms: _293  and  _296
REMARK  118  A    between atoms: _296  and  _297
REMARK  119  A    between atoms: _302  and  _303
REMARK  120  A    between atoms: _305  and  _307
REMARK  121  A    between atoms: _307  and  _308
REMARK  122  A    between atoms: _307  and  _310
REMARK  123  A    between atoms: _310  and  _311
REMARK  124  A    between atoms: _311  and  _312
REMARK  125  A    between atoms: _315  and  _317
REMARK  126  A    between atoms: _317  and  _318
REMARK  127  A    between atoms: _317  and  _320
REMARK  128  A    between atoms: _320  and  _321
REMARK  129  A    between atoms: _326  and  _327
REMARK  130  A    between atoms: _329  and  _331
REMARK  131  A    between atoms: _331  and  _332
REMARK  132  A    between atoms: _331  and  _334
REMARK  133  A    between atoms: _334  and  _335
REMARK  134  A    between atoms: _340  and  _342
REMARK  135  A    between atoms: _342  and  _343
REMARK  136  A    between atoms: _342  and  _345
REMARK  137  A    between atoms: _345  and  _346
REMARK  138  A    between atoms: _349  and  _351
REMARK  139  A    between atoms: _351  and  _352
REMARK  140  A    between atoms: _351  and  _354
REMARK  141  A    between atoms: _354  and  _355
REMARK  142  A    between atoms: _360  and  _362
REMARK  143  A    between atoms: _362  and  _363
REMARK  144  A    between atoms: _362  and  _365
REMARK  145  A    between atoms: _365  and  _366
REMARK  146  A    between atoms: _376  and  _378
REMARK  147  A    between atoms: _378  and  _379
REMARK  148  A    between atoms: _378  and  _381
REMARK  149  A    between atoms: _381  and  _382
REMARK  150  A    between atoms: _388  and  _390
REMARK  151  A    between atoms: _390  and  _391
REMARK  152  A    between atoms: _390  and  _393
REMARK  153  A    between atoms: _393  and  _394
REMARK  154  A    between atoms: _397  and  _399
REMARK  155  A    between atoms: _399  and  _400
REMARK  156  A    between atoms: _399  and  _402
REMARK  157  A    between atoms: _402  and  _403
REMARK  158  A    between atoms: _406  and  _408
REMARK  159  A    between atoms: _408  and  _409
REMARK  160  A    between atoms: _408  and  _411
REMARK  161  A    between atoms: _411  and  _412
REMARK  162  A    between atoms: _412  and  _413
REMARK  163  A    between atoms: _413  and  _414
REMARK  164  A    between atoms: _423  and  _425
REMARK  165  A    between atoms: _425  and  _426
REMARK  166  A    between atoms: _425  and  _428
REMARK  167  A    between atoms: _428  and  _429
REMARK  168  A    between atoms: _434  and  _436
REMARK  169  A    between atoms: _436  and  _437
REMARK  170  A    between atoms: _436  and  _439
REMARK  171  A    between atoms: _439  and  _440
REMARK  172  A    between atoms: _441  and  _442
REMARK  173  A    between atoms: _451  and  _453
REMARK  174  A    between atoms: _453  and  _454
REMARK  175  A    between atoms: _457  and  _459
REMARK  176  A    between atoms: _459  and  _460
REMARK  177  A    between atoms: _462  and  _464
REMARK  178  A    between atoms: _464  and  _465
REMARK  179  A    between atoms: _464  and  _467
REMARK  180  A    between atoms: _467  and  _468
REMARK  181  A    between atoms: _478  and  _480
REMARK  182  A    between atoms: _480  and  _481
REMARK  183  A    between atoms: _480  and  _483
REMARK  184  A    between atoms: _483  and  _484
REMARK  185  A    between atoms: _485  and  _487
REMARK  186  A    between atoms: _487  and  _488
REMARK  187  A    between atoms: _491  and  _493
REMARK  188  A    between atoms: _493  and  _494
REMARK  189  A    between atoms: _493  and  _496
REMARK  190  A    between atoms: _496  and  _497
REMARK  191  A    between atoms: _500  and  _502
REMARK  192  A    between atoms: _502  and  _503
REMARK  193  A    between atoms: _502  and  _505
REMARK  194  A    between atoms: _505  and  _506
REMARK  195  A    between atoms: _511  and  _512
REMARK  196  A    between atoms: _514  and  _516
REMARK  197  A    between atoms: _516  and  _517
REMARK  198  A    between atoms: _516  and  _519
REMARK  199  A    between atoms: _519  and  _520
REMARK  200  A    between atoms: _522  and  _524
REMARK  201  A    between atoms: _524  and  _525
REMARK  202  A    between atoms: _524  and  _527
REMARK  203  A    between atoms: _527  and  _528
REMARK  204  A    between atoms: _534  and  _536
REMARK  205  A    between atoms: _536  and  _537
REMARK  206  A    between atoms: _536  and  _539
REMARK  207  A    between atoms: _539  and  _540
REMARK  208  A    between atoms: _543  and  _545
REMARK  209  A    between atoms: _545  and  _546
REMARK  210  A    between atoms: _545  and  _548
REMARK  211  A    between atoms: _548  and  _549
REMARK  212  A    between atoms: _551  and  _553
REMARK  213  A    between atoms: _553  and  _554
REMARK  214  A    between atoms: _553  and  _556
REMARK  215  A    between atoms: _556  and  _557
REMARK  216  A    between atoms: _562  and  _564
REMARK  217  A    between atoms: _564  and  _565
REMARK  218  A    between atoms: _564  and  _567
REMARK  219  A    between atoms: _567  and  _568
REMARK  220  A    between atoms: _571  and  _573
REMARK  221  A    between atoms: _573  and  _574
REMARK  222  A    between atoms: _573  and  _576
REMARK  223  A    between atoms: _576  and  _577
REMARK  224  A    between atoms: _582  and  _583
REMARK  225  A    between atoms: _585  and  _587
REMARK  226  A    between atoms: _587  and  _588
REMARK  227  A    between atoms: _587  and  _590
REMARK  228  A    between atoms: _590  and  _591
REMARK  229  A    between atoms: _596  and  _597
REMARK  230  A    between atoms: _599  and  _601
REMARK  231  A    between atoms: _601  and  _602
REMARK  232  A    between atoms: _601  and  _604
REMARK  233  A    between atoms: _607  and  _609
REMARK  234  A    between atoms: _609  and  _610
REMARK  235  A    between atoms: _609  and  _612
REMARK  236  A    between atoms: _612  and  _613
REMARK  237  A    between atoms: _618  and  _620
REMARK  238  A    between atoms: _620  and  _621
REMARK  239  A    between atoms: _624  and  _626
REMARK  240  A    between atoms: _626  and  _627
REMARK  241  A    between atoms: _626  and  _629
REMARK  242  A    between atoms: _629  and  _630
REMARK  243  A    between atoms: _630  and  _631
REMARK  244  A    between atoms: _631  and  _632
REMARK  245  A    between atoms: _641  and  _643
REMARK  246  A    between atoms: _643  and  _644
REMARK  247  A    between atoms: _643  and  _646
REMARK  248  A    between atoms: _646  and  _647
REMARK  249  A    between atoms: _650  and  _652
REMARK  250  A    between atoms: _652  and  _653
REMARK  251  A    between atoms: _652  and  _655
REMARK  252  A    between atoms: _655  and  _656
REMARK  253  A    between atoms: _659  and  _661
REMARK  254  A    between atoms: _661  and  _662
REMARK  255  A    between atoms: _661  and  _664
REMARK  256  A    between atoms: _664  and  _665
REMARK                            x       y       z     vdW  Elec       q    Type
REMARK                         _______ _______ _______ _____ _____    ______ ____
ROOT
ATOM      1  CG  TYR A   1      -7.494  13.363  22.387  0.00  0.00    -0.020 A 
ATOM      2  CD2 TYR A   1      -8.231  14.505  22.711  0.00  0.00    -0.001 A 
ATOM      3  CE2 TYR A   1      -8.447  15.527  21.797  0.00  0.00    +0.036 A 
ATOM      4  CZ  TYR A   1      -7.909  15.414  20.536  0.00  0.00    +0.134 A 
ATOM      5  CE1 TYR A   1      -7.177  14.306  20.186  0.00  0.00    +0.036 A 
ATOM      6  CD1 TYR A   1      -6.985  13.284  21.114  0.00  0.00    -0.001 A 
ENDROOT
BRANCH   4   7
ATOM      7  OH  TYR A   1      -8.117  16.410  19.597  0.00  0.00    -0.506 OA
ATOM      8  HH  TYR A   1      -7.662  16.166  18.752  0.00  0.00    +0.292 HD
ENDBRANCH   4   7
BRANCH   1   9
ATOM      9  CB  TYR A   1      -7.325  12.260  23.401  0.00  0.00    +0.051 C 
BRANCH   9  10
ATOM     10  CA  TYR A   1      -5.980  12.082  24.086  0.00  0.00    +0.137 C 
BRANCH  10  11
ATOM     11  N   TYR A   1      -5.559  13.255  24.847  0.00  0.00    -0.239 NA
ATOM     12  H   TYR A   1      -4.939  13.970  24.416  0.00  0.00    +0.142 HD
ENDBRANCH  10  11
BRANCH  10  13
ATOM     13  C   TYR A   1      -4.925  11.722  23.024  0.00  0.00    +0.224 C 
ATOM     14  O   TYR A   1      -4.116  12.576  22.687  0.00  0.00    -0.287 OA
ENDBRANCH  10  13
ENDBRANCH   9  10
ENDBRANCH   1   9
TORSDOF 5
REMARK  Name = ../refined-set-2016/1b6h/1b6h_pocket.pdb
REMARK  256 active torsions:
REMARK  status: ('A' for Active; 'I' for Inactive)
REMARK    1  A    between atoms: _1  and  _3
REMARK    2  A    between atoms: _3  and  _4
REMARK    3  A    between atoms: _3  and  _6
REMARK    4  A    between atoms: _6  and  _7
REMARK    5  A    between atoms: _12  and  _14
REMARK    6  A    between atoms: _14  and  _15
REMARK    7  A    between atoms: _17  and  _19
REMARK    8  A    between atoms: _19  and  _20
REMARK    9  A    between atoms: _19  and  _22
REMARK   10  A    between atoms: _22  and  _23
REMARK   11  A    between atoms: _23  and  _24
REMARK   12  A    between atoms: _29  and  _31
REMARK   13  A    between atoms: _31  and  _32
REMARK   14  A    between atoms: _31  and  _34
REMARK   15  A    between atoms: _34  and  _35
REMARK   16  A    between atoms: _38  and  _40
REMARK   17  A    between atoms: _40  and  _41
REMARK   18  A    between atoms: _40  and  _43
REMARK   19  A    between atoms: _43  and  _44
REMARK   20  A    between atoms: _44  and  _45
REMARK   21  A    between atoms: _48  and  _50
REMARK   22  A    between atoms: _50  and  _51
REMARK   23  A    between atoms: _53  and  _55
REMARK   24  A    between atoms: _55  and  _56
REMARK   25  A    between atoms: _55  and  _58
REMARK   26  A    between atoms: _62  and  _63
REMARK   27  A    between atoms: _68  and  _70
REMARK   28  A    between atoms: _70  and  _71
REMARK   29  A    between atoms: _70  and  _73
REMARK   30  A    between atoms: _73  and  _74
REMARK   31  A    between atoms: _74  and  _75
REMARK   32  A    between atoms: _78  and  _80
REMARK   33  A    between atoms: _80  and  _81
REMARK   34  A    between atoms: _80  and  _83
REMARK   35  A    between atoms: _83  and  _84
REMARK   36  A    between atoms: _86  and  _88
REMARK   37  A    between atoms: _88  and  _89
REMARK   38  A    between atoms: _88  and  _91
REMARK   39  A    between atoms: _91  and  _92
REMARK   40  A    between atoms: _97  and  _99
REMARK   41  A    between atoms: _99  and  _100
REMARK   42  A    between atoms: _99  and  _102
REMARK   43  A    between atoms: _102  and  _103
REMARK   44  A    between atoms: _103  and  _104
REMARK   45  A    between atoms: _104  and  _105
REMARK   46  A    between atoms: _115  and  _116
REMARK   47  A    between atoms: _121  and  _123
REMARK   48  A    between atoms: _123  and  _124
REMARK   49  A    between atoms: _123  and  _126
REMARK   50  A    between atoms: _126  and  _127
REMARK   51  A    between atoms: _132  and  _133
REMARK   52  A    between atoms: _135  and  _137
REMARK   53  A    between atoms: _137  and  _138
REMARK   54  A    between atoms: _137  and  _140
REMARK   55  A    between atoms: _140  and  _141
REMARK   56  A    between atoms: _146  and  _147
REMARK   57  A    between atoms: _149  and  _151
REMARK   58  A    between atoms: _151  and  _152
REMARK   59  A    between atoms: _151  and  _154
REMARK   60  A    between atoms: _157  and  _159
REMARK   61  A    between atoms: _159  and  _160
REMARK   62  A    between atoms: _159  and  _162
REMARK   63  A    between atoms: _162  and  _163
REMARK   64  A    between atoms: _169  and  _170
REMARK   65  A    between atoms: _175  and  _177
REMARK   66  A    between atoms: _177  and  _178
REMARK   67  A    between atoms: _177  and  _180
REMARK   68  A    between atoms: _180  and  _181
REMARK   69  A    between atoms: _183  and  _185
REMARK   70  A    between atoms: _185  and  _186
REMARK   71  A    between atoms: _185  and  _188
REMARK   72  A    between atoms: _188  and  _189
REMARK   73  A    between atoms: _189  and  _190
REMARK   74  A    between atoms: _193  and  _195
REMARK   75  A    between atoms: _195  and  _196
REMARK   76  A    between atoms: _195  and  _198
REMARK   77  A    between atoms: _198  and  _199
REMARK   78  A    between atoms: _204  and  _205
REMARK   79  A    between atoms: _207  and  _209
REMARK   80  A    between atoms: _209  and  _210
REMARK   81  A    between atoms: _209  and  _212
REMARK   82  A    between atoms: _212  and  _213
REMARK   83  A    between atoms: _218  and  _220
REMARK   84  A    between atoms: _220  and  _221
REMARK   85  A    between atoms: _220  and  _223
REMARK   86  A    between atoms: _223  and  _224
REMARK   87  A    between atoms: _229  and  _231
REMARK   88  A    between atoms: _231  and  _232
REMARK   89  A    between atoms: _231  and  _234
REMARK   90  A    between atoms: _234  and  _235
REMARK   91  A    between atoms: _235  and  _236
REMARK   92  A    between atoms: _238  and  _240
REMARK   93  A    between atoms: _240  and  _241
REMARK   94  A    between atoms: _240  and  _243
REMARK   95  A    between atoms: _243  and  _244
REMARK   96  A    between atoms: _249  and  _250
REMARK   97  A    between atoms: _252  and  _254
REMARK   98  A    between atoms: _254  and  _255
REMARK   99  A    between atoms: _254  and  _257
REMARK  100  A    between atoms: _257  and  _258
REMARK  101  A    between atoms: _261  and  _263
REMARK  102  A    between atoms: _263  and  _264
REMARK  103  A    between atoms: _263  and  _266
REMARK  104  A    between atoms: _266  and  _267
REMARK  105  A    between atoms: _267  and  _484
REMARK  106  A    between atoms: _268  and  _270
REMARK  107  A    between atoms: _270  and  _271
REMARK  108  A    between atoms: _270  and  _273
REMARK  109  A    between atoms: _273  and  _274
REMARK  110  A    between atoms: _277  and  _279
REMARK  111  A    between atoms: _279  and  _280
REMARK  112  A    between atoms: _279  and  _282
REMARK  113  A    between atoms: _282  and  _283
REMARK  114  A    between atoms: _288  and  _289
REMARK  115  A    between atoms: _291  and  _293
REMARK  116  A    between atoms: _293  and  _294
REMARK  117  A    between atoms: _293  and  _296
REMARK  118  A    between atoms: _296  and  _297
REMARK  119  A    between atoms: _302  and  _303
REMARK  120  A    between atoms: _305  and  _307
REMARK  121  A    between atoms: _307  and  _308
REMARK  122  A    between atoms: _307  and  _310
REMARK  123  A    between atoms: _310  and  _311
REMARK  124  A    between atoms: _311  and  _312
REMARK  125  A    between atoms: _315  and  _317
REMARK  126  A    between atoms: _317  and  _318
REMARK  127  A    between atoms: _317  and  _320
REMARK  128  A    between atoms: _320  and  _321
REMARK  129  A    between atoms: _326  and  _327
REMARK  130  A    between atoms: _329  and  _331
REMARK  131  A    between atoms: _331  and  _332
REMARK  132  A    between atoms: _331  and  _334
REMARK  133  A    between atoms: _334  and  _335
REMARK  134  A    between atoms: _340  and  _342
REMARK  135  A    between atoms: _342  and  _343
REMARK  136  A    between atoms: _342  and  _345
REMARK  137  A    between atoms: _345  and  _346
REMARK  138  A    between atoms: _349  and  _351
REMARK  139  A    between atoms: _351  and  _352
REMARK  140  A    between atoms: _351  and  _354
REMARK  141  A    between atoms: _354  and  _355
REMARK  142  A    between atoms: _360  and  _362
REMARK  143  A    between atoms: _362  and  _363
REMARK  144  A    between atoms: _362  and  _365
REMARK  145  A    between atoms: _365  and  _366
REMARK  146  A    between atoms: _376  and  _378
REMARK  147  A    between atoms: _378  and  _379
REMARK  148  A    between atoms: _378  and  _381
REMARK  149  A    between atoms: _381  and  _382
REMARK  150  A    between atoms: _388  and  _390
REMARK  151  A    between atoms: _390  and  _391
REMARK  152  A    between atoms: _390  and  _393
REMARK  153  A    between atoms: _393  and  _394
REMARK  154  A    between atoms: _397  and  _399
REMARK  155  A    between atoms: _399  and  _400
REMARK  156  A    between atoms: _399  and  _402
REMARK  157  A    between atoms: _402  and  _403
REMARK  158  A    between atoms: _406  and  _408
REMARK  159  A    between atoms: _408  and  _409
REMARK  160  A    between atoms: _408  and  _411
REMARK  161  A    between atoms: _411  and  _412
REMARK  162  A    between atoms: _412  and  _413
REMARK  163  A    between atoms: _413  and  _414
REMARK  164  A    between atoms: _423  and  _425
REMARK  165  A    between atoms: _425  and  _426
REMARK  166  A    between atoms: _425  and  _428
REMARK  167  A    between atoms: _428  and  _429
REMARK  168  A    between atoms: _434  and  _436
REMARK  169  A    between atoms: _436  and  _437
REMARK  170  A    between atoms: _436  and  _439
REMARK  171  A    between atoms: _439  and  _440
REMARK  172  A    between atoms: _441  and  _442
REMARK  173  A    between atoms: _451  and  _453
REMARK  174  A    between atoms: _453  and  _454
REMARK  175  A    between atoms: _457  and  _459
REMARK  176  A    between atoms: _459  and  _460
REMARK  177  A    between atoms: _462  and  _464
REMARK  178  A    between atoms: _464  and  _465
REMARK  179  A    between atoms: _464  and  _467
REMARK  180  A    between atoms: _467  and  _468
REMARK  181  A    between atoms: _478  and  _480
REMARK  182  A    between atoms: _480  and  _481
REMARK  183  A    between atoms: _480  and  _483
REMARK  184  A    between atoms: _483  and  _484
REMARK  185  A    between atoms: _485  and  _487
REMARK  186  A    between atoms: _487  and  _488
REMARK  187  A    between atoms: _491  and  _493
REMARK  188  A    between atoms: _493  and  _494
REMARK  189  A    between atoms: _493  and  _496
REMARK  190  A    between atoms: _496  and  _497
REMARK  191  A    between atoms: _500  and  _502
REMARK  192  A    between atoms: _502  and  _503
REMARK  193  A    between atoms: _502  and  _505
REMARK  194  A    between atoms: _505  and  _506
REMARK  195  A    between atoms: _511  and  _512
REMARK  196  A    between atoms: _514  and  _516
REMARK  197  A    between atoms: _516  and  _517
REMARK  198  A    between atoms: _516  and  _519
REMARK  199  A    between atoms: _519  and  _520
REMARK  200  A    between atoms: _522  and  _524
REMARK  201  A    between atoms: _524  and  _525
REMARK  202  A    between atoms: _524  and  _527
REMARK  203  A    between atoms: _527  and  _528
REMARK  204  A    between atoms: _534  and  _536
REMARK  205  A    between atoms: _536  and  _537
REMARK  206  A    between atoms: _536  and  _539
REMARK  207  A    between atoms: _539  and  _540
REMARK  208  A    between atoms: _543  and  _545
REMARK  209  A    between atoms: _545  and  _546
REMARK  210  A    between atoms: _545  and  _548
REMARK  211  A    between atoms: _548  and  _549
REMARK  212  A    between atoms: _551  and  _553
REMARK  213  A    between atoms: _553  and  _554
REMARK  214  A    between atoms: _553  and  _556
REMARK  215  A    between atoms: _556  and  _557
REMARK  216  A    between atoms: _562  and  _564
REMARK  217  A    between atoms: _564  and  _565
REMARK  218  A    between atoms: _564  and  _567
REMARK  219  A    between atoms: _567  and  _568
REMARK  220  A    between atoms: _571  and  _573
REMARK  221  A    between atoms: _573  and  _574
REMARK  222  A    between atoms: _573  and  _576
REMARK  223  A    between atoms: _576  and  _577
REMARK  224  A    between atoms: _582  and  _583
REMARK  225  A    between atoms: _585  and  _587
REMARK  226  A    between atoms: _587  and  _588
REMARK  227  A    between atoms: _587  and  _590
REMARK  228  A    between atoms: _590  and  _591
REMARK  229  A    between atoms: _596  and  _597
REMARK  230  A    between atoms: _599  and  _601
REMARK  231  A    between atoms: _601  and  _602
REMARK  232  A    between atoms: _601  and  _604
REMARK  233  A    between atoms: _607  and  _609
REMARK  234  A    between atoms: _609  and  _610
REMARK  235  A    between atoms: _609  and  _612
REMARK  236  A    between atoms: _612  and  _613
REMARK  237  A    between atoms: _618  and  _620
REMARK  238  A    between atoms: _620  and  _621
REMARK  239  A    between atoms: _624  and  _626
REMARK  240  A    between atoms: _626  and  _627
REMARK  241  A    between atoms: _626  and  _629
REMARK  242  A    between atoms: _629  and  _630
REMARK  243  A    between atoms: _630  and  _631
REMARK  244  A    between atoms: _631  and  _632
REMARK  245  A    between atoms: _641  and  _643
REMARK  246  A    between atoms: _643  and  _644
REMARK  247  A    between atoms: _643  and  _646
REMARK  248  A    between atoms: _646  and  _647
REMARK  249  A    between atoms: _650  and  _652
REMARK  250  A    between atoms: _652  and  _653
REMARK  251  A    between atoms: _652  and  _655
REMARK  252  A    between atoms: _655  and  _656
REMARK  253  A    between atoms: _659  and  _661
REMARK  254  A    between atoms: _661  and  _662
REMARK  255  A    between atoms: _661  and  _664
REMARK  256  A    between atoms: _664  and  _665
REMARK                            x       y       z     vdW  Elec       q    Type
REMARK                         _______ _______ _______ _____ _____    ______ ____
ROOT
ATOM      1  CA  ASN A   3      -6.163  10.849  11.771  0.00  0.00    +0.158 C 
ENDROOT
BRANCH   1   4
ATOM      2  C   VAL A   2      -6.682  10.513  14.091  0.00  0.00    +0.241 C 
ATOM      3  O   VAL A   2      -6.864  11.724  14.273  0.00  0.00    -0.273 OA
ATOM      4  N   ASN A   3      -6.293   9.981  12.951  0.00  0.00    -0.297 N 
ATOM      5  H   ASN A   3      -6.081   8.965  12.886  0.00  0.00    +0.150 HD
BRANCH   2   6
ATOM      6  CA  VAL A   2      -6.880   9.541  15.267  0.00  0.00    +0.148 C 
BRANCH   6   9
ATOM      7  C   TYR A   1      -5.519  10.209  17.150  0.00  0.00    +0.239 C 
ATOM      8  O   TYR A   1      -4.775   9.251  17.068  0.00  0.00    -0.274 OA
ATOM      9  N   VAL A   2      -6.629  10.381  16.423  0.00  0.00    -0.297 N 
ATOM     10  H   VAL A   2      -7.313  11.118  16.687  0.00  0.00    +0.150 HD
BRANCH   7  11
ATOM     11  CA  TYR A   1      -5.266  11.435  18.045  0.00  0.00    +0.149 C 
BRANCH  11  12
ATOM     12  N   TYR A   1      -4.457  11.120  19.200  0.00  0.00    -0.238 NA
ATOM     13  H   TYR A   1      -3.478  11.465  19.267  0.00  0.00    +0.142 HD
ENDBRANCH  11  12
BRANCH  11  14
ATOM     14  CB  TYR A   1      -4.502  12.365  17.102  0.00  0.00    +0.053 C 
BRANCH  14  15
ATOM     15  CG  TYR A   1      -4.227  13.803  17.376  0.00  0.00    -0.020 A 
ATOM     16  CD2 TYR A   1      -3.392  14.214  18.403  0.00  0.00    -0.001 A 
ATOM     17  CE2 TYR A   1      -3.119  15.553  18.600  0.00  0.00    +0.036 A 
ATOM     18  CZ  TYR A   1      -3.693  16.492  17.791  0.00  0.00    +0.134 A 
ATOM     19  CE1 TYR A   1      -4.544  16.129  16.772  0.00  0.00    +0.036 A 
ATOM     20  CD1 TYR A   1      -4.775  14.789  16.553  0.00  0.00    -0.001 A 
BRANCH  18  21
ATOM     21  OH  TYR A   1      -3.400  17.814  18.024  0.00  0.00    -0.506 OA
ATOM     22  HH  TYR A   1      -2.978  18.204  17.218  0.00  0.00    +0.292 HD
ENDBRANCH  18  21
ENDBRANCH  14  15
ENDBRANCH  11  14
ENDBRANCH   7  11
ENDBRANCH   6   9
BRANCH   6  23
ATOM     23  CB  VAL A   2      -8.251   8.863  15.160  0.00  0.00    +0.027 C 
ATOM     24  CG2 VAL A   2      -8.310   7.776  16.238  0.00  0.00    +0.002 C 
ATOM     25  CG1 VAL A   2      -9.378   9.843  15.303  0.00  0.00    +0.002 C 
ENDBRANCH   6  23
ENDBRANCH   2   6
ENDBRANCH   1   4
BRANCH   1  26
ATOM     26  C   ASN A   3      -7.494  10.899  11.016  0.00  0.00    +0.241 C 
ATOM     27  N   ALA A   4      -8.341  11.881  11.330  0.00  0.00    -0.297 N 
ATOM     28  H   ALA A   4      -8.059  12.573  12.054  0.00  0.00    +0.150 HD
ATOM     29  O   ASN A   3      -7.719  10.073  10.126  0.00  0.00    -0.273 OA
BRANCH  27  30
ATOM     30  CA  ALA A   4      -9.646  12.021  10.697  0.00  0.00    +0.149 C 
ATOM     31  CB  ALA A   4     -10.712  12.259  11.771  0.00  0.00    +0.031 C 
BRANCH  30  32
ATOM     32  C   ALA A   4      -9.683  13.186   9.713  0.00  0.00    +0.241 C 
ATOM     33  O   ALA A   4      -9.350  14.325  10.078  0.00  0.00    -0.273 OA
ATOM     34  N   ARG A   5     -10.055  12.909   8.469  0.00  0.00    -0.298 N 
ATOM     35  H   ARG A   5     -10.306  11.936   8.201  0.00  0.00    +0.150 HD
BRANCH  34  36
ATOM     36  CA  ARG A   5     -10.108  13.988   7.477  0.00  0.00    +0.137 C 
BRANCH  36  37
ATOM     37  C   ARG A   5     -11.085  13.577   6.383  0.00  0.00    +0.227 C 
ATOM     38  O   ARG A   5     -11.357  12.366   6.302  0.00  0.00    -0.286 OA
ENDBRANCH  36  37
BRANCH  36  39
ATOM     39  CB  ARG A   5      -8.726  14.190   6.830  0.00  0.00    +0.031 C 
BRANCH  39  40
ATOM     40  CG  ARG A   5      -8.086  12.855   6.458  0.00  0.00    +0.045 C 
BRANCH  40  41
ATOM     41  CD  ARG A   5      -7.114  12.888   5.330  0.00  0.00    +0.174 C 
BRANCH  41  42
ATOM     42  NE  ARG A   5      -6.135  13.955   5.246  0.00  0.00    -0.265 N 
ATOM     43  CZ  ARG A   5      -4.898  13.990   5.724  0.00  0.00    +0.342 C 
ATOM     44  NH2 ARG A   5      -4.414  12.956   6.367  0.00  0.00    -0.292 N 
ATOM     45 HH21 ARG A   5      -3.444  12.984   6.742  0.00  0.00    +0.255 HD
ATOM     46 HH22 ARG A   5      -5.000  12.107   6.503  0.00  0.00    +0.255 HD
ATOM     47  NH1 ARG A   5      -4.145  15.067   5.539  0.00  0.00    -0.292 N 
ATOM     48 HH11 ARG A   5      -3.175  15.094   5.914  0.00  0.00    +0.255 HD
ATOM     49 HH12 ARG A   5      -4.525  15.884   5.019  0.00  0.00    +0.255 HD
ATOM     50  HE  ARG A   5      -6.445  14.810   4.742  0.00  0.00    +0.259 HD
ENDBRANCH  41  42
ENDBRANCH  40  41
ENDBRANCH  39  40
ENDBRANCH  36  39
ENDBRANCH  34  36
ENDBRANCH  30  32
ENDBRANCH  27  30
ENDBRANCH   1  26
BRANCH   1  51
ATOM     51  CB  ASN A   3      -5.036  10.268  10.920  0.00  0.00    +0.114 C 
BRANCH  51  52
ATOM     52  CG  ASN A   3      -4.770  11.155   9.708  0.00  0.00    +0.222 C 
ATOM     53  OD1 ASN A   3      -5.377  12.213   9.580  0.00  0.00    -0.275 OA
ATOM     54  ND2 ASN A   3      -3.872  10.741   8.846  0.00  0.00    -0.329 N 
ATOM     55 HD21 ASN A   3      -3.384   9.836   8.998  0.00  0.00    +0.145 HD
ATOM     56 HD22 ASN A   3      -3.649  11.318   8.010  0.00  0.00    +0.145 HD
ENDBRANCH  51  52
ENDBRANCH   1  51
TORSDOF 20
REMARK  Name = ../refined-set-2016/1b6h/1b6h_pocket.pdb
REMARK  256 active torsions:
REMARK  status: ('A' for Active; 'I' for Inactive)
REMARK    1  A    between atoms: _1  and  _3
REMARK    2  A    between atoms: _3  and  _4
REMARK    3  A    between atoms: _3  and  _6
REMARK    4  A    between atoms: _6  and  _7
REMARK    5  A    between atoms: _12  and  _14
REMARK    6  A    between atoms: _14  and  _15
REMARK    7  A    between atoms: _17  and  _19
REMARK    8  A    between atoms: _19  and  _20
REMARK    9  A    between atoms: _19  and  _22
REMARK   10  A    between atoms: _22  and  _23
REMARK   11  A    between atoms: _23  and  _24
REMARK   12  A    between atoms: _29  and  _31
REMARK   13  A    between atoms: _31  and  _32
REMARK   14  A    between atoms: _31  and  _34
REMARK   15  A    between atoms: _34  and  _35
REMARK   16  A    between atoms: _38  and  _40
REMARK   17  A    between atoms: _40  and  _41
REMARK   18  A    between atoms: _40  and  _43
REMARK   19  A    between atoms: _43  and  _44
REMARK   20  A    between atoms: _44  and  _45
REMARK   21  A    between atoms: _48  and  _50
REMARK   22  A    between atoms: _50  and  _51
REMARK   23  A    between atoms: _53  and  _55
REMARK   24  A    between atoms: _55  and  _56
REMARK   25  A    between atoms: _55  and  _58
REMARK   26  A    between atoms: _62  and  _63
REMARK   27  A    between atoms: _68  and  _70
REMARK   28  A    between atoms: _70  and  _71
REMARK   29  A    between atoms: _70  and  _73
REMARK   30  A    between atoms: _73  and  _74
REMARK   31  A    between atoms: _74  and  _75
REMARK   32  A    between atoms: _78  and  _80
REMARK   33  A    between atoms: _80  and  _81
REMARK   34  A    between atoms: _80  and  _83
REMARK   35  A    between atoms: _83  and  _84
REMARK   36  A    between atoms: _86  and  _88
REMARK   37  A    between atoms: _88  and  _89
REMARK   38  A    between atoms: _88  and  _91
REMARK   39  A    between atoms: _91  and  _92
REMARK   40  A    between atoms: _97  and  _99
REMARK   41  A    between atoms: _99  and  _100
REMARK   42  A    between atoms: _99  and  _102
REMARK   43  A    between atoms: _102  and  _103
REMARK   44  A    between atoms: _103  and  _104
REMARK   45  A    between atoms: _104  and  _105
REMARK   46  A    between atoms: _115  and  _116
REMARK   47  A    between atoms: _121  and  _123
REMARK   48  A    between atoms: _123  and  _124
REMARK   49  A    between atoms: _123  and  _126
REMARK   50  A    between atoms: _126  and  _127
REMARK   51  A    between atoms: _132  and  _133
REMARK   52  A    between atoms: _135  and  _137
REMARK   53  A    between atoms: _137  and  _138
REMARK   54  A    between atoms: _137  and  _140
REMARK   55  A    between atoms: _140  and  _141
REMARK   56  A    between atoms: _146  and  _147
REMARK   57  A    between atoms: _149  and  _151
REMARK   58  A    between atoms: _151  and  _152
REMARK   59  A    between atoms: _151  and  _154
REMARK   60  A    between atoms: _157  and  _159
REMARK   61  A    between atoms: _159  and  _160
REMARK   62  A    between atoms: _159  and  _162
REMARK   63  A    between atoms: _162  and  _163
REMARK   64  A    between atoms: _169  and  _170
REMARK   65  A    between atoms: _175  and  _177
REMARK   66  A    between atoms: _177  and  _178
REMARK   67  A    between atoms: _177  and  _180
REMARK   68  A    between atoms: _180  and  _181
REMARK   69  A    between atoms: _183  and  _185
REMARK   70  A    between atoms: _185  and  _186
REMARK   71  A    between atoms: _185  and  _188
REMARK   72  A    between atoms: _188  and  _189
REMARK   73  A    between atoms: _189  and  _190
REMARK   74  A    between atoms: _193  and  _195
REMARK   75  A    between atoms: _195  and  _196
REMARK   76  A    between atoms: _195  and  _198
REMARK   77  A    between atoms: _198  and  _199
REMARK   78  A    between atoms: _204  and  _205
REMARK   79  A    between atoms: _207  and  _209
REMARK   80  A    between atoms: _209  and  _210
REMARK   81  A    between atoms: _209  and  _212
REMARK   82  A    between atoms: _212  and  _213
REMARK   83  A    between atoms: _218  and  _220
REMARK   84  A    between atoms: _220  and  _221
REMARK   85  A    between atoms: _220  and  _223
REMARK   86  A    between atoms: _223  and  _224
REMARK   87  A    between atoms: _229  and  _231
REMARK   88  A    between atoms: _231  and  _232
REMARK   89  A    between atoms: _231  and  _234
REMARK   90  A    between atoms: _234  and  _235
REMARK   91  A    between atoms: _235  and  _236
REMARK   92  A    between atoms: _238  and  _240
REMARK   93  A    between atoms: _240  and  _241
REMARK   94  A    between atoms: _240  and  _243
REMARK   95  A    between atoms: _243  and  _244
REMARK   96  A    between atoms: _249  and  _250
REMARK   97  A    between atoms: _252  and  _254
REMARK   98  A    between atoms: _254  and  _255
REMARK   99  A    between atoms: _254  and  _257
REMARK  100  A    between atoms: _257  and  _258
REMARK  101  A    between atoms: _261  and  _263
REMARK  102  A    between atoms: _263  and  _264
REMARK  103  A    between atoms: _263  and  _266
REMARK  104  A    between atoms: _266  and  _267
REMARK  105  A    between atoms: _267  and  _484
REMARK  106  A    between atoms: _268  and  _270
REMARK  107  A    between atoms: _270  and  _271
REMARK  108  A    between atoms: _270  and  _273
REMARK  109  A    between atoms: _273  and  _274
REMARK  110  A    between atoms: _277  and  _279
REMARK  111  A    between atoms: _279  and  _280
REMARK  112  A    between atoms: _279  and  _282
REMARK  113  A    between atoms: _282  and  _283
REMARK  114  A    between atoms: _288  and  _289
REMARK  115  A    between atoms: _291  and  _293
REMARK  116  A    between atoms: _293  and  _294
REMARK  117  A    between atoms: _293  and  _296
REMARK  118  A    between atoms: _296  and  _297
REMARK  119  A    between atoms: _302  and  _303
REMARK  120  A    between atoms: _305  and  _307
REMARK  121  A    between atoms: _307  and  _308
REMARK  122  A    between atoms: _307  and  _310
REMARK  123  A    between atoms: _310  and  _311
REMARK  124  A    between atoms: _311  and  _312
REMARK  125  A    between atoms: _315  and  _317
REMARK  126  A    between atoms: _317  and  _318
REMARK  127  A    between atoms: _317  and  _320
REMARK  128  A    between atoms: _320  and  _321
REMARK  129  A    between atoms: _326  and  _327
REMARK  130  A    between atoms: _329  and  _331
REMARK  131  A    between atoms: _331  and  _332
REMARK  132  A    between atoms: _331  and  _334
REMARK  133  A    between atoms: _334  and  _335
REMARK  134  A    between atoms: _340  and  _342
REMARK  135  A    between atoms: _342  and  _343
REMARK  136  A    between atoms: _342  and  _345
REMARK  137  A    between atoms: _345  and  _346
REMARK  138  A    between atoms: _349  and  _351
REMARK  139  A    between atoms: _351  and  _352
REMARK  140  A    between atoms: _351  and  _354
REMARK  141  A    between atoms: _354  and  _355
REMARK  142  A    between atoms: _360  and  _362
REMARK  143  A    between atoms: _362  and  _363
REMARK  144  A    between atoms: _362  and  _365
REMARK  145  A    between atoms: _365  and  _366
REMARK  146  A    between atoms: _376  and  _378
REMARK  147  A    between atoms: _378  and  _379
REMARK  148  A    between atoms: _378  and  _381
REMARK  149  A    between atoms: _381  and  _382
REMARK  150  A    between atoms: _388  and  _390
REMARK  151  A    between atoms: _390  and  _391
REMARK  152  A    between atoms: _390  and  _393
REMARK  153  A    between atoms: _393  and  _394
REMARK  154  A    between atoms: _397  and  _399
REMARK  155  A    between atoms: _399  and  _400
REMARK  156  A    between atoms: _399  and  _402
REMARK  157  A    between atoms: _402  and  _403
REMARK  158  A    between atoms: _406  and  _408
REMARK  159  A    between atoms: _408  and  _409
REMARK  160  A    between atoms: _408  and  _411
REMARK  161  A    between atoms: _411  and  _412
REMARK  162  A    between atoms: _412  and  _413
REMARK  163  A    between atoms: _413  and  _414
REMARK  164  A    between atoms: _423  and  _425
REMARK  165  A    between atoms: _425  and  _426
REMARK  166  A    between atoms: _425  and  _428
REMARK  167  A    between atoms: _428  and  _429
REMARK  168  A    between atoms: _434  and  _436
REMARK  169  A    between atoms: _436  and  _437
REMARK  170  A    between atoms: _436  and  _439
REMARK  171  A    between atoms: _439  and  _440
REMARK  172  A    between atoms: _441  and  _442
REMARK  173  A    between atoms: _451  and  _453
REMARK  174  A    between atoms: _453  and  _454
REMARK  175  A    between atoms: _457  and  _459
REMARK  176  A    between atoms: _459  and  _460
REMARK  177  A    between atoms: _462  and  _464
REMARK  178  A    between atoms: _464  and  _465
REMARK  179  A    between atoms: _464  and  _467
REMARK  180  A    between atoms: _467  and  _468
REMARK  181  A    between atoms: _478  and  _480
REMARK  182  A    between atoms: _480  and  _481
REMARK  183  A    between atoms: _480  and  _483
REMARK  184  A    between atoms: _483  and  _484
REMARK  185  A    between atoms: _485  and  _487
REMARK  186  A    between atoms: _487  and  _488
REMARK  187  A    between atoms: _491  and  _493
REMARK  188  A    between atoms: _493  and  _494
REMARK  189  A    between atoms: _493  and  _496
REMARK  190  A    between atoms: _496  and  _497
REMARK  191  A    between atoms: _500  and  _502
REMARK  192  A    between atoms: _502  and  _503
REMARK  193  A    between atoms: _502  and  _505
REMARK  194  A    between atoms: _505  and  _506
REMARK  195  A    between atoms: _511  and  _512
REMARK  196  A    between atoms: _514  and  _516
REMARK  197  A    between atoms: _516  and  _517
REMARK  198  A    between atoms: _516  and  _519
REMARK  199  A    between atoms: _519  and  _520
REMARK  200  A    between atoms: _522  and  _524
REMARK  201  A    between atoms: _524  and  _525
REMARK  202  A    between atoms: _524  and  _527
REMARK  203  A    between atoms: _527  and  _528
REMARK  204  A    between atoms: _534  and  _536
REMARK  205  A    between atoms: _536  and  _537
REMARK  206  A    between atoms: _536  and  _539
REMARK  207  A    between atoms: _539  and  _540
REMARK  208  A    between atoms: _543  and  _545
REMARK  209  A    between atoms: _545  and  _546
REMARK  210  A    between atoms: _545  and  _548
REMARK  211  A    between atoms: _548  and  _549
REMARK  212  A    between atoms: _551  and  _553
REMARK  213  A    between atoms: _553  and  _554
REMARK  214  A    between atoms: _553  and  _556
REMARK  215  A    between atoms: _556  and  _557
REMARK  216  A    between atoms: _562  and  _564
REMARK  217  A    between atoms: _564  and  _565
REMARK  218  A    between atoms: _564  and  _567
REMARK  219  A    between atoms: _567  and  _568
REMARK  220  A    between atoms: _571  and  _573
REMARK  221  A    between atoms: _573  and  _574
REMARK  222  A    between atoms: _573  and  _576
REMARK  223  A    between atoms: _576  and  _577
REMARK  224  A    between atoms: _582  and  _583
REMARK  225  A    between atoms: _585  and  _587
REMARK  226  A    between atoms: _587  and  _588
REMARK  227  A    between atoms: _587  and  _590
REMARK  228  A    between atoms: _590  and  _591
REMARK  229  A    between atoms: _596  and  _597
REMARK  230  A    between atoms: _599  and  _601
REMARK  231  A    between atoms: _601  and  _602
REMARK  232  A    between atoms: _601  and  _604
REMARK  233  A    between atoms: _607  and  _609
REMARK  234  A    between atoms: _609  and  _610
REMARK  235  A    between atoms: _609  and  _612
REMARK  236  A    between atoms: _612  and  _613
REMARK  237  A    between atoms: _618  and  _620
REMARK  238  A    between atoms: _620  and  _621
REMARK  239  A    between atoms: _624  and  _626
REMARK  240  A    between atoms: _626  and  _627
REMARK  241  A    between atoms: _626  and  _629
REMARK  242  A    between atoms: _629  and  _630
REMARK  243  A    between atoms: _630  and  _631
REMARK  244  A    between atoms: _631  and  _632
REMARK  245  A    between atoms: _641  and  _643
REMARK  246  A    between atoms: _643  and  _644
REMARK  247  A    between atoms: _643  and  _646
REMARK  248  A    between atoms: _646  and  _647
REMARK  249  A    between atoms: _650  and  _652
REMARK  250  A    between atoms: _652  and  _653
REMARK  251  A    between atoms: _652  and  _655
REMARK  252  A    between atoms: _655  and  _656
REMARK  253  A    between atoms: _659  and  _661
REMARK  254  A    between atoms: _661  and  _662
REMARK  255  A    between atoms: _661  and  _664
REMARK  256  A    between atoms: _664  and  _665
REMARK                            x       y       z     vdW  Elec       q    Type
REMARK                         _______ _______ _______ _____ _____    ______ ____
ROOT
ATOM      1  CA  ASP A   2       0.708  10.740   7.685  0.00  0.00    +0.160 C 
ENDROOT
BRANCH   1   4
ATOM      2  C   LEU A   1       2.242  10.398   9.576  0.00  0.00    +0.238 C 
ATOM      3  O   LEU A   1       2.589  11.579   9.633  0.00  0.00    -0.274 OA
ATOM      4  N   ASP A   2       1.381   9.917   8.678  0.00  0.00    -0.297 N 
ATOM      5  H   ASP A   2       1.180   8.897   8.688  0.00  0.00    +0.150 HD
BRANCH   2   6
ATOM      6  CA  LEU A   1       2.895   9.426  10.567  0.00  0.00    +0.145 C 
BRANCH   6   7
ATOM      7  N   LEU A   1       2.263   8.125  10.534  0.00  0.00    -0.238 NA
ATOM      8  H   LEU A   1       2.589   7.431   9.831  0.00  0.00    +0.142 HD
ENDBRANCH   6   7
BRANCH   6   9
ATOM      9  CB  LEU A   1       4.406   9.441  10.290  0.00  0.00    +0.026 C 
BRANCH   9  10
ATOM     10  CG  LEU A   1       5.264   8.473  11.113  0.00  0.00    +0.002 C 
ATOM     11  CD2 LEU A   1       4.811   8.386  12.547  0.00  0.00    +0.000 C 
ATOM     12  CD1 LEU A   1       6.755   8.790  11.049  0.00  0.00    +0.000 C 
ENDBRANCH   9  10
ENDBRANCH   6   9
ENDBRANCH   2   6
ENDBRANCH   1   4
BRANCH   1  13
ATOM     13  C   ASP A   2       1.682  11.583   6.849  0.00  0.00    +0.241 C 
ATOM     14  O   ASP A   2       1.448  12.761   6.598  0.00  0.00    -0.273 OA
ATOM     15  N   ASN A   3       2.753  10.955   6.374  0.00  0.00    -0.298 N 
ATOM     16  H   ASN A   3       2.878   9.946   6.595  0.00  0.00    +0.150 HD
BRANCH  15  17
ATOM     17  CA  ASN A   3       3.767  11.626   5.551  0.00  0.00    +0.146 C 
BRANCH  17  18
ATOM     18  C   ASN A   3       3.344  11.566   4.081  0.00  0.00    +0.227 C 
ATOM     19  O   ASN A   3       3.983  10.895   3.292  0.00  0.00    -0.286 OA
ENDBRANCH  17  18
BRANCH  17  20
ATOM     20  CB  ASN A   3       5.142  10.954   5.725  0.00  0.00    +0.112 C 
BRANCH  20  21
ATOM     21  CG  ASN A   3       5.839  11.462   6.981  0.00  0.00    +0.222 C 
ATOM     22  ND2 ASN A   3       6.501  10.565   7.693  0.00  0.00    -0.329 N 
ATOM     23 HD21 ASN A   3       6.976  10.848   8.574  0.00  0.00    +0.145 HD
ATOM     24 HD22 ASN A   3       6.546   9.577   7.372  0.00  0.00    +0.145 HD
ATOM     25  OD1 ASN A   3       5.752  12.633   7.308  0.00  0.00    -0.275 OA
ENDBRANCH  20  21
ENDBRANCH  17  20
ENDBRANCH  15  17
ENDBRANCH   1  13
BRANCH   1  26
ATOM     26  CB  ASP A   2      -0.359  11.639   8.291  0.00  0.00    +0.143 C 
BRANCH  26  27
ATOM     27  CG  ASP A   2      -1.444  12.003   7.290  0.00  0.00    +0.367 C 
ATOM     28  OD2 ASP A   2      -1.975  13.110   7.332  0.00  0.00    -0.246 OA
ATOM     29  OD1 ASP A   2      -1.767  11.209   6.400  0.00  0.00    -0.246 OA
ENDBRANCH  26  27
ENDBRANCH   1  26
TORSDOF 12
REMARK  Name = ../refined-set-2016/1b6h/1b6h_pocket.pdb
REMARK  256 active torsions:
REMARK  status: ('A' for Active; 'I' for Inactive)
REMARK    1  A    between atoms: _1  and  _3
REMARK    2  A    between atoms: _3  and  _4
REMARK    3  A    between atoms: _3  and  _6
REMARK    4  A    between atoms: _6  and  _7
REMARK    5  A    between atoms: _12  and  _14
REMARK    6  A    between atoms: _14  and  _15
REMARK    7  A    between atoms: _17  and  _19
REMARK    8  A    between atoms: _19  and  _20
REMARK    9  A    between atoms: _19  and  _22
REMARK   10  A    between atoms: _22  and  _23
REMARK   11  A    between atoms: _23  and  _24
REMARK   12  A    between atoms: _29  and  _31
REMARK   13  A    between atoms: _31  and  _32
REMARK   14  A    between atoms: _31  and  _34
REMARK   15  A    between atoms: _34  and  _35
REMARK   16  A    between atoms: _38  and  _40
REMARK   17  A    between atoms: _40  and  _41
REMARK   18  A    between atoms: _40  and  _43
REMARK   19  A    between atoms: _43  and  _44
REMARK   20  A    between atoms: _44  and  _45
REMARK   21  A    between atoms: _48  and  _50
REMARK   22  A    between atoms: _50  and  _51
REMARK   23  A    between atoms: _53  and  _55
REMARK   24  A    between atoms: _55  and  _56
REMARK   25  A    between atoms: _55  and  _58
REMARK   26  A    between atoms: _62  and  _63
REMARK   27  A    between atoms: _68  and  _70
REMARK   28  A    between atoms: _70  and  _71
REMARK   29  A    between atoms: _70  and  _73
REMARK   30  A    between atoms: _73  and  _74
REMARK   31  A    between atoms: _74  and  _75
REMARK   32  A    between atoms: _78  and  _80
REMARK   33  A    between atoms: _80  and  _81
REMARK   34  A    between atoms: _80  and  _83
REMARK   35  A    between atoms: _83  and  _84
REMARK   36  A    between atoms: _86  and  _88
REMARK   37  A    between atoms: _88  and  _89
REMARK   38  A    between atoms: _88  and  _91
REMARK   39  A    between atoms: _91  and  _92
REMARK   40  A    between atoms: _97  and  _99
REMARK   41  A    between atoms: _99  and  _100
REMARK   42  A    between atoms: _99  and  _102
REMARK   43  A    between atoms: _102  and  _103
REMARK   44  A    between atoms: _103  and  _104
REMARK   45  A    between atoms: _104  and  _105
REMARK   46  A    between atoms: _115  and  _116
REMARK   47  A    between atoms: _121  and  _123
REMARK   48  A    between atoms: _123  and  _124
REMARK   49  A    between atoms: _123  and  _126
REMARK   50  A    between atoms: _126  and  _127
REMARK   51  A    between atoms: _132  and  _133
REMARK   52  A    between atoms: _135  and  _137
REMARK   53  A    between atoms: _137  and  _138
REMARK   54  A    between atoms: _137  and  _140
REMARK   55  A    between atoms: _140  and  _141
REMARK   56  A    between atoms: _146  and  _147
REMARK   57  A    between atoms: _149  and  _151
REMARK   58  A    between atoms: _151  and  _152
REMARK   59  A    between atoms: _151  and  _154
REMARK   60  A    between atoms: _157  and  _159
REMARK   61  A    between atoms: _159  and  _160
REMARK   62  A    between atoms: _159  and  _162
REMARK   63  A    between atoms: _162  and  _163
REMARK   64  A    between atoms: _169  and  _170
REMARK   65  A    between atoms: _175  and  _177
REMARK   66  A    between atoms: _177  and  _178
REMARK   67  A    between atoms: _177  and  _180
REMARK   68  A    between atoms: _180  and  _181
REMARK   69  A    between atoms: _183  and  _185
REMARK   70  A    between atoms: _185  and  _186
REMARK   71  A    between atoms: _185  and  _188
REMARK   72  A    between atoms: _188  and  _189
REMARK   73  A    between atoms: _189  and  _190
REMARK   74  A    between atoms: _193  and  _195
REMARK   75  A    between atoms: _195  and  _196
REMARK   76  A    between atoms: _195  and  _198
REMARK   77  A    between atoms: _198  and  _199
REMARK   78  A    between atoms: _204  and  _205
REMARK   79  A    between atoms: _207  and  _209
REMARK   80  A    between atoms: _209  and  _210
REMARK   81  A    between atoms: _209  and  _212
REMARK   82  A    between atoms: _212  and  _213
REMARK   83  A    between atoms: _218  and  _220
REMARK   84  A    between atoms: _220  and  _221
REMARK   85  A    between atoms: _220  and  _223
REMARK   86  A    between atoms: _223  and  _224
REMARK   87  A    between atoms: _229  and  _231
REMARK   88  A    between atoms: _231  and  _232
REMARK   89  A    between atoms: _231  and  _234
REMARK   90  A    between atoms: _234  and  _235
REMARK   91  A    between atoms: _235  and  _236
REMARK   92  A    between atoms: _238  and  _240
REMARK   93  A    between atoms: _240  and  _241
REMARK   94  A    between atoms: _240  and  _243
REMARK   95  A    between atoms: _243  and  _244
REMARK   96  A    between atoms: _249  and  _250
REMARK   97  A    between atoms: _252  and  _254
REMARK   98  A    between atoms: _254  and  _255
REMARK   99  A    between atoms: _254  and  _257
REMARK  100  A    between atoms: _257  and  _258
REMARK  101  A    between atoms: _261  and  _263
REMARK  102  A    between atoms: _263  and  _264
REMARK  103  A    between atoms: _263  and  _266
REMARK  104  A    between atoms: _266  and  _267
REMARK  105  A    between atoms: _267  and  _484
REMARK  106  A    between atoms: _268  and  _270
REMARK  107  A    between atoms: _270  and  _271
REMARK  108  A    between atoms: _270  and  _273
REMARK  109  A    between atoms: _273  and  _274
REMARK  110  A    between atoms: _277  and  _279
REMARK  111  A    between atoms: _279  and  _280
REMARK  112  A    between atoms: _279  and  _282
REMARK  113  A    between atoms: _282  and  _283
REMARK  114  A    between atoms: _288  and  _289
REMARK  115  A    between atoms: _291  and  _293
REMARK  116  A    between atoms: _293  and  _294
REMARK  117  A    between atoms: _293  and  _296
REMARK  118  A    between atoms: _296  and  _297
REMARK  119  A    between atoms: _302  and  _303
REMARK  120  A    between atoms: _305  and  _307
REMARK  121  A    between atoms: _307  and  _308
REMARK  122  A    between atoms: _307  and  _310
REMARK  123  A    between atoms: _310  and  _311
REMARK  124  A    between atoms: _311  and  _312
REMARK  125  A    between atoms: _315  and  _317
REMARK  126  A    between atoms: _317  and  _318
REMARK  127  A    between atoms: _317  and  _320
REMARK  128  A    between atoms: _320  and  _321
REMARK  129  A    between atoms: _326  and  _327
REMARK  130  A    between atoms: _329  and  _331
REMARK  131  A    between atoms: _331  and  _332
REMARK  132  A    between atoms: _331  and  _334
REMARK  133  A    between atoms: _334  and  _335
REMARK  134  A    between atoms: _340  and  _342
REMARK  135  A    between atoms: _342  and  _343
REMARK  136  A    between atoms: _342  and  _345
REMARK  137  A    between atoms: _345  and  _346
REMARK  138  A    between atoms: _349  and  _351
REMARK  139  A    between atoms: _351  and  _352
REMARK  140  A    between atoms: _351  and  _354
REMARK  141  A    between atoms: _354  and  _355
REMARK  142  A    between atoms: _360  and  _362
REMARK  143  A    between atoms: _362  and  _363
REMARK  144  A    between atoms: _362  and  _365
REMARK  145  A    between atoms: _365  and  _366
REMARK  146  A    between atoms: _376  and  _378
REMARK  147  A    between atoms: _378  and  _379
REMARK  148  A    between atoms: _378  and  _381
REMARK  149  A    between atoms: _381  and  _382
REMARK  150  A    between atoms: _388  and  _390
REMARK  151  A    between atoms: _390  and  _391
REMARK  152  A    between atoms: _390  and  _393
REMARK  153  A    between atoms: _393  and  _394
REMARK  154  A    between atoms: _397  and  _399
REMARK  155  A    between atoms: _399  and  _400
REMARK  156  A    between atoms: _399  and  _402
REMARK  157  A    between atoms: _402  and  _403
REMARK  158  A    between atoms: _406  and  _408
REMARK  159  A    between atoms: _408  and  _409
REMARK  160  A    between atoms: _408  and  _411
REMARK  161  A    between atoms: _411  and  _412
REMARK  162  A    between atoms: _412  and  _413
REMARK  163  A    between atoms: _413  and  _414
REMARK  164  A    between atoms: _423  and  _425
REMARK  165  A    between atoms: _425  and  _426
REMARK  166  A    between atoms: _425  and  _428
REMARK  167  A    between atoms: _428  and  _429
REMARK  168  A    between atoms: _434  and  _436
REMARK  169  A    between atoms: _436  and  _437
REMARK  170  A    between atoms: _436  and  _439
REMARK  171  A    between atoms: _439  and  _440
REMARK  172  A    between atoms: _441  and  _442
REMARK  173  A    between atoms: _451  and  _453
REMARK  174  A    between atoms: _453  and  _454
REMARK  175  A    between atoms: _457  and  _459
REMARK  176  A    between atoms: _459  and  _460
REMARK  177  A    between atoms: _462  and  _464
REMARK  178  A    between atoms: _464  and  _465
REMARK  179  A    between atoms: _464  and  _467
REMARK  180  A    between atoms: _467  and  _468
REMARK  181  A    between atoms: _478  and  _480
REMARK  182  A    between atoms: _480  and  _481
REMARK  183  A    between atoms: _480  and  _483
REMARK  184  A    between atoms: _483  and  _484
REMARK  185  A    between atoms: _485  and  _487
REMARK  186  A    between atoms: _487  and  _488
REMARK  187  A    between atoms: _491  and  _493
REMARK  188  A    between atoms: _493  and  _494
REMARK  189  A    between atoms: _493  and  _496
REMARK  190  A    between atoms: _496  and  _497
REMARK  191  A    between atoms: _500  and  _502
REMARK  192  A    between atoms: _502  and  _503
REMARK  193  A    between atoms: _502  and  _505
REMARK  194  A    between atoms: _505  and  _506
REMARK  195  A    between atoms: _511  and  _512
REMARK  196  A    between atoms: _514  and  _516
REMARK  197  A    between atoms: _516  and  _517
REMARK  198  A    between atoms: _516  and  _519
REMARK  199  A    between atoms: _519  and  _520
REMARK  200  A    between atoms: _522  and  _524
REMARK  201  A    between atoms: _524  and  _525
REMARK  202  A    between atoms: _524  and  _527
REMARK  203  A    between atoms: _527  and  _528
REMARK  204  A    between atoms: _534  and  _536
REMARK  205  A    between atoms: _536  and  _537
REMARK  206  A    between atoms: _536  and  _539
REMARK  207  A    between atoms: _539  and  _540
REMARK  208  A    between atoms: _543  and  _545
REMARK  209  A    between atoms: _545  and  _546
REMARK  210  A    between atoms: _545  and  _548
REMARK  211  A    between atoms: _548  and  _549
REMARK  212  A    between atoms: _551  and  _553
REMARK  213  A    between atoms: _553  and  _554
REMARK  214  A    between atoms: _553  and  _556
REMARK  215  A    between atoms: _556  and  _557
REMARK  216  A    between atoms: _562  and  _564
REMARK  217  A    between atoms: _564  and  _565
REMARK  218  A    between atoms: _564  and  _567
REMARK  219  A    between atoms: _567  and  _568
REMARK  220  A    between atoms: _571  and  _573
REMARK  221  A    between atoms: _573  and  _574
REMARK  222  A    between atoms: _573  and  _576
REMARK  223  A    between atoms: _576  and  _577
REMARK  224  A    between atoms: _582  and  _583
REMARK  225  A    between atoms: _585  and  _587
REMARK  226  A    between atoms: _587  and  _588
REMARK  227  A    between atoms: _587  and  _590
REMARK  228  A    between atoms: _590  and  _591
REMARK  229  A    between atoms: _596  and  _597
REMARK  230  A    between atoms: _599  and  _601
REMARK  231  A    between atoms: _601  and  _602
REMARK  232  A    between atoms: _601  and  _604
REMARK  233  A    between atoms: _607  and  _609
REMARK  234  A    between atoms: _609  and  _610
REMARK  235  A    between atoms: _609  and  _612
REMARK  236  A    between atoms: _612  and  _613
REMARK  237  A    between atoms: _618  and  _620
REMARK  238  A    between atoms: _620  and  _621
REMARK  239  A    between atoms: _624  and  _626
REMARK  240  A    between atoms: _626  and  _627
REMARK  241  A    between atoms: _626  and  _629
REMARK  242  A    between atoms: _629  and  _630
REMARK  243  A    between atoms: _630  and  _631
REMARK  244  A    between atoms: _631  and  _632
REMARK  245  A    between atoms: _641  and  _643
REMARK  246  A    between atoms: _643  and  _644
REMARK  247  A    between atoms: _643  and  _646
REMARK  248  A    between atoms: _646  and  _647
REMARK  249  A    between atoms: _650  and  _652
REMARK  250  A    between atoms: _652  and  _653
REMARK  251  A    between atoms: _652  and  _655
REMARK  252  A    between atoms: _655  and  _656
REMARK  253  A    between atoms: _659  and  _661
REMARK  254  A    between atoms: _661  and  _662
REMARK  255  A    between atoms: _661  and  _664
REMARK  256  A    between atoms: _664  and  _665
REMARK                            x       y       z     vdW  Elec       q    Type
REMARK                         _______ _______ _______ _____ _____    ______ ____
ROOT
ATOM      1  O   HOH     1       3.385  16.906   8.158  0.00  0.00    +0.000 OA
ENDROOT
TORSDOF 0
REMARK  Name = ../refined-set-2016/1b6h/1b6h_pocket.pdb
REMARK  256 active torsions:
REMARK  status: ('A' for Active; 'I' for Inactive)
REMARK    1  A    between atoms: _1  and  _3
REMARK    2  A    between atoms: _3  and  _4
REMARK    3  A    between atoms: _3  and  _6
REMARK    4  A    between atoms: _6  and  _7
REMARK    5  A    between atoms: _12  and  _14
REMARK    6  A    between atoms: _14  and  _15
REMARK    7  A    between atoms: _17  and  _19
REMARK    8  A    between atoms: _19  and  _20
REMARK    9  A    between atoms: _19  and  _22
REMARK   10  A    between atoms: _22  and  _23
REMARK   11  A    between atoms: _23  and  _24
REMARK   12  A    between atoms: _29  and  _31
REMARK   13  A    between atoms: _31  and  _32
REMARK   14  A    between atoms: _31  and  _34
REMARK   15  A    between atoms: _34  and  _35
REMARK   16  A    between atoms: _38  and  _40
REMARK   17  A    between atoms: _40  and  _41
REMARK   18  A    between atoms: _40  and  _43
REMARK   19  A    between atoms: _43  and  _44
REMARK   20  A    between atoms: _44  and  _45
REMARK   21  A    between atoms: _48  and  _50
REMARK   22  A    between atoms: _50  and  _51
REMARK   23  A    between atoms: _53  and  _55
REMARK   24  A    between atoms: _55  and  _56
REMARK   25  A    between atoms: _55  and  _58
REMARK   26  A    between atoms: _62  and  _63
REMARK   27  A    between atoms: _68  and  _70
REMARK   28  A    between atoms: _70  and  _71
REMARK   29  A    between atoms: _70  and  _73
REMARK   30  A    between atoms: _73  and  _74
REMARK   31  A    between atoms: _74  and  _75
REMARK   32  A    between atoms: _78  and  _80
REMARK   33  A    between atoms: _80  and  _81
REMARK   34  A    between atoms: _80  and  _83
REMARK   35  A    between atoms: _83  and  _84
REMARK   36  A    between atoms: _86  and  _88
REMARK   37  A    between atoms: _88  and  _89
REMARK   38  A    between atoms: _88  and  _91
REMARK   39  A    between atoms: _91  and  _92
REMARK   40  A    between atoms: _97  and  _99
REMARK   41  A    between atoms: _99  and  _100
REMARK   42  A    between atoms: _99  and  _102
REMARK   43  A    between atoms: _102  and  _103
REMARK   44  A    between atoms: _103  and  _104
REMARK   45  A    between atoms: _104  and  _105
REMARK   46  A    between atoms: _115  and  _116
REMARK   47  A    between atoms: _121  and  _123
REMARK   48  A    between atoms: _123  and  _124
REMARK   49  A    between atoms: _123  and  _126
REMARK   50  A    between atoms: _126  and  _127
REMARK   51  A    between atoms: _132  and  _133
REMARK   52  A    between atoms: _135  and  _137
REMARK   53  A    between atoms: _137  and  _138
REMARK   54  A    between atoms: _137  and  _140
REMARK   55  A    between atoms: _140  and  _141
REMARK   56  A    between atoms: _146  and  _147
REMARK   57  A    between atoms: _149  and  _151
REMARK   58  A    between atoms: _151  and  _152
REMARK   59  A    between atoms: _151  and  _154
REMARK   60  A    between atoms: _157  and  _159
REMARK   61  A    between atoms: _159  and  _160
REMARK   62  A    between atoms: _159  and  _162
REMARK   63  A    between atoms: _162  and  _163
REMARK   64  A    between atoms: _169  and  _170
REMARK   65  A    between atoms: _175  and  _177
REMARK   66  A    between atoms: _177  and  _178
REMARK   67  A    between atoms: _177  and  _180
REMARK   68  A    between atoms: _180  and  _181
REMARK   69  A    between atoms: _183  and  _185
REMARK   70  A    between atoms: _185  and  _186
REMARK   71  A    between atoms: _185  and  _188
REMARK   72  A    between atoms: _188  and  _189
REMARK   73  A    between atoms: _189  and  _190
REMARK   74  A    between atoms: _193  and  _195
REMARK   75  A    between atoms: _195  and  _196
REMARK   76  A    between atoms: _195  and  _198
REMARK   77  A    between atoms: _198  and  _199
REMARK   78  A    between atoms: _204  and  _205
REMARK   79  A    between atoms: _207  and  _209
REMARK   80  A    between atoms: _209  and  _210
REMARK   81  A    between atoms: _209  and  _212
REMARK   82  A    between atoms: _212  and  _213
REMARK   83  A    between atoms: _218  and  _220
REMARK   84  A    between atoms: _220  and  _221
REMARK   85  A    between atoms: _220  and  _223
REMARK   86  A    between atoms: _223  and  _224
REMARK   87  A    between atoms: _229  and  _231
REMARK   88  A    between atoms: _231  and  _232
REMARK   89  A    between atoms: _231  and  _234
REMARK   90  A    between atoms: _234  and  _235
REMARK   91  A    between atoms: _235  and  _236
REMARK   92  A    between atoms: _238  and  _240
REMARK   93  A    between atoms: _240  and  _241
REMARK   94  A    between atoms: _240  and  _243
REMARK   95  A    between atoms: _243  and  _244
REMARK   96  A    between atoms: _249  and  _250
REMARK   97  A    between atoms: _252  and  _254
REMARK   98  A    between atoms: _254  and  _255
REMARK   99  A    between atoms: _254  and  _257
REMARK  100  A    between atoms: _257  and  _258
REMARK  101  A    between atoms: _261  and  _263
REMARK  102  A    between atoms: _263  and  _264
REMARK  103  A    between atoms: _263  and  _266
REMARK  104  A    between atoms: _266  and  _267
REMARK  105  A    between atoms: _267  and  _484
REMARK  106  A    between atoms: _268  and  _270
REMARK  107  A    between atoms: _270  and  _271
REMARK  108  A    between atoms: _270  and  _273
REMARK  109  A    between atoms: _273  and  _274
REMARK  110  A    between atoms: _277  and  _279
REMARK  111  A    between atoms: _279  and  _280
REMARK  112  A    between atoms: _279  and  _282
REMARK  113  A    between atoms: _282  and  _283
REMARK  114  A    between atoms: _288  and  _289
REMARK  115  A    between atoms: _291  and  _293
REMARK  116  A    between atoms: _293  and  _294
REMARK  117  A    between atoms: _293  and  _296
REMARK  118  A    between atoms: _296  and  _297
REMARK  119  A    between atoms: _302  and  _303
REMARK  120  A    between atoms: _305  and  _307
REMARK  121  A    between atoms: _307  and  _308
REMARK  122  A    between atoms: _307  and  _310
REMARK  123  A    between atoms: _310  and  _311
REMARK  124  A    between atoms: _311  and  _312
REMARK  125  A    between atoms: _315  and  _317
REMARK  126  A    between atoms: _317  and  _318
REMARK  127  A    between atoms: _317  and  _320
REMARK  128  A    between atoms: _320  and  _321
REMARK  129  A    between atoms: _326  and  _327
REMARK  130  A    between atoms: _329  and  _331
REMARK  131  A    between atoms: _331  and  _332
REMARK  132  A    between atoms: _331  and  _334
REMARK  133  A    between atoms: _334  and  _335
REMARK  134  A    between atoms: _340  and  _342
REMARK  135  A    between atoms: _342  and  _343
REMARK  136  A    between atoms: _342  and  _345
REMARK  137  A    between atoms: _345  and  _346
REMARK  138  A    between atoms: _349  and  _351
REMARK  139  A    between atoms: _351  and  _352
REMARK  140  A    between atoms: _351  and  _354
REMARK  141  A    between atoms: _354  and  _355
REMARK  142  A    between atoms: _360  and  _362
REMARK  143  A    between atoms: _362  and  _363
REMARK  144  A    between atoms: _362  and  _365
REMARK  145  A    between atoms: _365  and  _366
REMARK  146  A    between atoms: _376  and  _378
REMARK  147  A    between atoms: _378  and  _379
REMARK  148  A    between atoms: _378  and  _381
REMARK  149  A    between atoms: _381  and  _382
REMARK  150  A    between atoms: _388  and  _390
REMARK  151  A    between atoms: _390  and  _391
REMARK  152  A    between atoms: _390  and  _393
REMARK  153  A    between atoms: _393  and  _394
REMARK  154  A    between atoms: _397  and  _399
REMARK  155  A    between atoms: _399  and  _400
REMARK  156  A    between atoms: _399  and  _402
REMARK  157  A    between atoms: _402  and  _403
REMARK  158  A    between atoms: _406  and  _408
REMARK  159  A    between atoms: _408  and  _409
REMARK  160  A    between atoms: _408  and  _411
REMARK  161  A    between atoms: _411  and  _412
REMARK  162  A    between atoms: _412  and  _413
REMARK  163  A    between atoms: _413  and  _414
REMARK  164  A    between atoms: _423  and  _425
REMARK  165  A    between atoms: _425  and  _426
REMARK  166  A    between atoms: _425  and  _428
REMARK  167  A    between atoms: _428  and  _429
REMARK  168  A    between atoms: _434  and  _436
REMARK  169  A    between atoms: _436  and  _437
REMARK  170  A    between atoms: _436  and  _439
REMARK  171  A    between atoms: _439  and  _440
REMARK  172  A    between atoms: _441  and  _442
REMARK  173  A    between atoms: _451  and  _453
REMARK  174  A    between atoms: _453  and  _454
REMARK  175  A    between atoms: _457  and  _459
REMARK  176  A    between atoms: _459  and  _460
REMARK  177  A    between atoms: _462  and  _464
REMARK  178  A    between atoms: _464  and  _465
REMARK  179  A    between atoms: _464  and  _467
REMARK  180  A    between atoms: _467  and  _468
REMARK  181  A    between atoms: _478  and  _480
REMARK  182  A    between atoms: _480  and  _481
REMARK  183  A    between atoms: _480  and  _483
REMARK  184  A    between atoms: _483  and  _484
REMARK  185  A    between atoms: _485  and  _487
REMARK  186  A    between atoms: _487  and  _488
REMARK  187  A    between atoms: _491  and  _493
REMARK  188  A    between atoms: _493  and  _494
REMARK  189  A    between atoms: _493  and  _496
REMARK  190  A    between atoms: _496  and  _497
REMARK  191  A    between atoms: _500  and  _502
REMARK  192  A    between atoms: _502  and  _503
REMARK  193  A    between atoms: _502  and  _505
REMARK  194  A    between atoms: _505  and  _506
REMARK  195  A    between atoms: _511  and  _512
REMARK  196  A    between atoms: _514  and  _516
REMARK  197  A    between atoms: _516  and  _517
REMARK  198  A    between atoms: _516  and  _519
REMARK  199  A    between atoms: _519  and  _520
REMARK  200  A    between atoms: _522  and  _524
REMARK  201  A    between atoms: _524  and  _525
REMARK  202  A    between atoms: _524  and  _527
REMARK  203  A    between atoms: _527  and  _528
REMARK  204  A    between atoms: _534  and  _536
REMARK  205  A    between atoms: _536  and  _537
REMARK  206  A    between atoms: _536  and  _539
REMARK  207  A    between atoms: _539  and  _540
REMARK  208  A    between atoms: _543  and  _545
REMARK  209  A    between atoms: _545  and  _546
REMARK  210  A    between atoms: _545  and  _548
REMARK  211  A    between atoms: _548  and  _549
REMARK  212  A    between atoms: _551  and  _553
REMARK  213  A    between atoms: _553  and  _554
REMARK  214  A    between atoms: _553  and  _556
REMARK  215  A    between atoms: _556  and  _557
REMARK  216  A    between atoms: _562  and  _564
REMARK  217  A    between atoms: _564  and  _565
REMARK  218  A    between atoms: _564  and  _567
REMARK  219  A    between atoms: _567  and  _568
REMARK  220  A    between atoms: _571  and  _573
REMARK  221  A    between atoms: _573  and  _574
REMARK  222  A    between atoms: _573  and  _576
REMARK  223  A    between atoms: _576  and  _577
REMARK  224  A    between atoms: _582  and  _583
REMARK  225  A    between atoms: _585  and  _587
REMARK  226  A    between atoms: _587  and  _588
REMARK  227  A    between atoms: _587  and  _590
REMARK  228  A    between atoms: _590  and  _591
REMARK  229  A    between atoms: _596  and  _597
REMARK  230  A    between atoms: _599  and  _601
REMARK  231  A    between atoms: _601  and  _602
REMARK  232  A    between atoms: _601  and  _604
REMARK  233  A    between atoms: _607  and  _609
REMARK  234  A    between atoms: _609  and  _610
REMARK  235  A    between atoms: _609  and  _612
REMARK  236  A    between atoms: _612  and  _613
REMARK  237  A    between atoms: _618  and  _620
REMARK  238  A    between atoms: _620  and  _621
REMARK  239  A    between atoms: _624  and  _626
REMARK  240  A    between atoms: _626  and  _627
REMARK  241  A    between atoms: _626  and  _629
REMARK  242  A    between atoms: _629  and  _630
REMARK  243  A    between atoms: _630  and  _631
REMARK  244  A    between atoms: _631  and  _632
REMARK  245  A    between atoms: _641  and  _643
REMARK  246  A    between atoms: _643  and  _644
REMARK  247  A    between atoms: _643  and  _646
REMARK  248  A    between atoms: _646  and  _647
REMARK  249  A    between atoms: _650  and  _652
REMARK  250  A    between atoms: _652  and  _653
REMARK  251  A    between atoms: _652  and  _655
REMARK  252  A    between atoms: _655  and  _656
REMARK  253  A    between atoms: _659  and  _661
REMARK  254  A    between atoms: _661  and  _662
REMARK  255  A    between atoms: _661  and  _664
REMARK  256  A    between atoms: _664  and  _665
REMARK                            x       y       z     vdW  Elec       q    Type
REMARK                         _______ _______ _______ _____ _____    ______ ____
ROOT
ATOM      1  O   HOH     1      11.284  13.606  16.676  0.00  0.00    +0.000 OA
ENDROOT
TORSDOF 0
REMARK  Name = ../refined-set-2016/1b6h/1b6h_pocket.pdb
REMARK  256 active torsions:
REMARK  status: ('A' for Active; 'I' for Inactive)
REMARK    1  A    between atoms: _1  and  _3
REMARK    2  A    between atoms: _3  and  _4
REMARK    3  A    between atoms: _3  and  _6
REMARK    4  A    between atoms: _6  and  _7
REMARK    5  A    between atoms: _12  and  _14
REMARK    6  A    between atoms: _14  and  _15
REMARK    7  A    between atoms: _17  and  _19
REMARK    8  A    between atoms: _19  and  _20
REMARK    9  A    between atoms: _19  and  _22
REMARK   10  A    between atoms: _22  and  _23
REMARK   11  A    between atoms: _23  and  _24
REMARK   12  A    between atoms: _29  and  _31
REMARK   13  A    between atoms: _31  and  _32
REMARK   14  A    between atoms: _31  and  _34
REMARK   15  A    between atoms: _34  and  _35
REMARK   16  A    between atoms: _38  and  _40
REMARK   17  A    between atoms: _40  and  _41
REMARK   18  A    between atoms: _40  and  _43
REMARK   19  A    between atoms: _43  and  _44
REMARK   20  A    between atoms: _44  and  _45
REMARK   21  A    between atoms: _48  and  _50
REMARK   22  A    between atoms: _50  and  _51
REMARK   23  A    between atoms: _53  and  _55
REMARK   24  A    between atoms: _55  and  _56
REMARK   25  A    between atoms: _55  and  _58
REMARK   26  A    between atoms: _62  and  _63
REMARK   27  A    between atoms: _68  and  _70
REMARK   28  A    between atoms: _70  and  _71
REMARK   29  A    between atoms: _70  and  _73
REMARK   30  A    between atoms: _73  and  _74
REMARK   31  A    between atoms: _74  and  _75
REMARK   32  A    between atoms: _78  and  _80
REMARK   33  A    between atoms: _80  and  _81
REMARK   34  A    between atoms: _80  and  _83
REMARK   35  A    between atoms: _83  and  _84
REMARK   36  A    between atoms: _86  and  _88
REMARK   37  A    between atoms: _88  and  _89
REMARK   38  A    between atoms: _88  and  _91
REMARK   39  A    between atoms: _91  and  _92
REMARK   40  A    between atoms: _97  and  _99
REMARK   41  A    between atoms: _99  and  _100
REMARK   42  A    between atoms: _99  and  _102
REMARK   43  A    between atoms: _102  and  _103
REMARK   44  A    between atoms: _103  and  _104
REMARK   45  A    between atoms: _104  and  _105
REMARK   46  A    between atoms: _115  and  _116
REMARK   47  A    between atoms: _121  and  _123
REMARK   48  A    between atoms: _123  and  _124
REMARK   49  A    between atoms: _123  and  _126
REMARK   50  A    between atoms: _126  and  _127
REMARK   51  A    between atoms: _132  and  _133
REMARK   52  A    between atoms: _135  and  _137
REMARK   53  A    between atoms: _137  and  _138
REMARK   54  A    between atoms: _137  and  _140
REMARK   55  A    between atoms: _140  and  _141
REMARK   56  A    between atoms: _146  and  _147
REMARK   57  A    between atoms: _149  and  _151
REMARK   58  A    between atoms: _151  and  _152
REMARK   59  A    between atoms: _151  and  _154
REMARK   60  A    between atoms: _157  and  _159
REMARK   61  A    between atoms: _159  and  _160
REMARK   62  A    between atoms: _159  and  _162
REMARK   63  A    between atoms: _162  and  _163
REMARK   64  A    between atoms: _169  and  _170
REMARK   65  A    between atoms: _175  and  _177
REMARK   66  A    between atoms: _177  and  _178
REMARK   67  A    between atoms: _177  and  _180
REMARK   68  A    between atoms: _180  and  _181
REMARK   69  A    between atoms: _183  and  _185
REMARK   70  A    between atoms: _185  and  _186
REMARK   71  A    between atoms: _185  and  _188
REMARK   72  A    between atoms: _188  and  _189
REMARK   73  A    between atoms: _189  and  _190
REMARK   74  A    between atoms: _193  and  _195
REMARK   75  A    between atoms: _195  and  _196
REMARK   76  A    between atoms: _195  and  _198
REMARK   77  A    between atoms: _198  and  _199
REMARK   78  A    between atoms: _204  and  _205
REMARK   79  A    between atoms: _207  and  _209
REMARK   80  A    between atoms: _209  and  _210
REMARK   81  A    between atoms: _209  and  _212
REMARK   82  A    between atoms: _212  and  _213
REMARK   83  A    between atoms: _218  and  _220
REMARK   84  A    between atoms: _220  and  _221
REMARK   85  A    between atoms: _220  and  _223
REMARK   86  A    between atoms: _223  and  _224
REMARK   87  A    between atoms: _229  and  _231
REMARK   88  A    between atoms: _231  and  _232
REMARK   89  A    between atoms: _231  and  _234
REMARK   90  A    between atoms: _234  and  _235
REMARK   91  A    between atoms: _235  and  _236
REMARK   92  A    between atoms: _238  and  _240
REMARK   93  A    between atoms: _240  and  _241
REMARK   94  A    between atoms: _240  and  _243
REMARK   95  A    between atoms: _243  and  _244
REMARK   96  A    between atoms: _249  and  _250
REMARK   97  A    between atoms: _252  and  _254
REMARK   98  A    between atoms: _254  and  _255
REMARK   99  A    between atoms: _254  and  _257
REMARK  100  A    between atoms: _257  and  _258
REMARK  101  A    between atoms: _261  and  _263
REMARK  102  A    between atoms: _263  and  _264
REMARK  103  A    between atoms: _263  and  _266
REMARK  104  A    between atoms: _266  and  _267
REMARK  105  A    between atoms: _267  and  _484
REMARK  106  A    between atoms: _268  and  _270
REMARK  107  A    between atoms: _270  and  _271
REMARK  108  A    between atoms: _270  and  _273
REMARK  109  A    between atoms: _273  and  _274
REMARK  110  A    between atoms: _277  and  _279
REMARK  111  A    between atoms: _279  and  _280
REMARK  112  A    between atoms: _279  and  _282
REMARK  113  A    between atoms: _282  and  _283
REMARK  114  A    between atoms: _288  and  _289
REMARK  115  A    between atoms: _291  and  _293
REMARK  116  A    between atoms: _293  and  _294
REMARK  117  A    between atoms: _293  and  _296
REMARK  118  A    between atoms: _296  and  _297
REMARK  119  A    between atoms: _302  and  _303
REMARK  120  A    between atoms: _305  and  _307
REMARK  121  A    between atoms: _307  and  _308
REMARK  122  A    between atoms: _307  and  _310
REMARK  123  A    between atoms: _310  and  _311
REMARK  124  A    between atoms: _311  and  _312
REMARK  125  A    between atoms: _315  and  _317
REMARK  126  A    between atoms: _317  and  _318
REMARK  127  A    between atoms: _317  and  _320
REMARK  128  A    between atoms: _320  and  _321
REMARK  129  A    between atoms: _326  and  _327
REMARK  130  A    between atoms: _329  and  _331
REMARK  131  A    between atoms: _331  and  _332
REMARK  132  A    between atoms: _331  and  _334
REMARK  133  A    between atoms: _334  and  _335
REMARK  134  A    between atoms: _340  and  _342
REMARK  135  A    between atoms: _342  and  _343
REMARK  136  A    between atoms: _342  and  _345
REMARK  137  A    between atoms: _345  and  _346
REMARK  138  A    between atoms: _349  and  _351
REMARK  139  A    between atoms: _351  and  _352
REMARK  140  A    between atoms: _351  and  _354
REMARK  141  A    between atoms: _354  and  _355
REMARK  142  A    between atoms: _360  and  _362
REMARK  143  A    between atoms: _362  and  _363
REMARK  144  A    between atoms: _362  and  _365
REMARK  145  A    between atoms: _365  and  _366
REMARK  146  A    between atoms: _376  and  _378
REMARK  147  A    between atoms: _378  and  _379
REMARK  148  A    between atoms: _378  and  _381
REMARK  149  A    between atoms: _381  and  _382
REMARK  150  A    between atoms: _388  and  _390
REMARK  151  A    between atoms: _390  and  _391
REMARK  152  A    between atoms: _390  and  _393
REMARK  153  A    between atoms: _393  and  _394
REMARK  154  A    between atoms: _397  and  _399
REMARK  155  A    between atoms: _399  and  _400
REMARK  156  A    between atoms: _399  and  _402
REMARK  157  A    between atoms: _402  and  _403
REMARK  158  A    between atoms: _406  and  _408
REMARK  159  A    between atoms: _408  and  _409
REMARK  160  A    between atoms: _408  and  _411
REMARK  161  A    between atoms: _411  and  _412
REMARK  162  A    between atoms: _412  and  _413
REMARK  163  A    between atoms: _413  and  _414
REMARK  164  A    between atoms: _423  and  _425
REMARK  165  A    between atoms: _425  and  _426
REMARK  166  A    between atoms: _425  and  _428
REMARK  167  A    between atoms: _428  and  _429
REMARK  168  A    between atoms: _434  and  _436
REMARK  169  A    between atoms: _436  and  _437
REMARK  170  A    between atoms: _436  and  _439
REMARK  171  A    between atoms: _439  and  _440
REMARK  172  A    between atoms: _441  and  _442
REMARK  173  A    between atoms: _451  and  _453
REMARK  174  A    between atoms: _453  and  _454
REMARK  175  A    between atoms: _457  and  _459
REMARK  176  A    between atoms: _459  and  _460
REMARK  177  A    between atoms: _462  and  _464
REMARK  178  A    between atoms: _464  and  _465
REMARK  179  A    between atoms: _464  and  _467
REMARK  180  A    between atoms: _467  and  _468
REMARK  181  A    between atoms: _478  and  _480
REMARK  182  A    between atoms: _480  and  _481
REMARK  183  A    between atoms: _480  and  _483
REMARK  184  A    between atoms: _483  and  _484
REMARK  185  A    between atoms: _485  and  _487
REMARK  186  A    between atoms: _487  and  _488
REMARK  187  A    between atoms: _491  and  _493
REMARK  188  A    between atoms: _493  and  _494
REMARK  189  A    between atoms: _493  and  _496
REMARK  190  A    between atoms: _496  and  _497
REMARK  191  A    between atoms: _500  and  _502
REMARK  192  A    between atoms: _502  and  _503
REMARK  193  A    between atoms: _502  and  _505
REMARK  194  A    between atoms: _505  and  _506
REMARK  195  A    between atoms: _511  and  _512
REMARK  196  A    between atoms: _514  and  _516
REMARK  197  A    between atoms: _516  and  _517
REMARK  198  A    between atoms: _516  and  _519
REMARK  199  A    between atoms: _519  and  _520
REMARK  200  A    between atoms: _522  and  _524
REMARK  201  A    between atoms: _524  and  _525
REMARK  202  A    between atoms: _524  and  _527
REMARK  203  A    between atoms: _527  and  _528
REMARK  204  A    between atoms: _534  and  _536
REMARK  205  A    between atoms: _536  and  _537
REMARK  206  A    between atoms: _536  and  _539
REMARK  207  A    between atoms: _539  and  _540
REMARK  208  A    between atoms: _543  and  _545
REMARK  209  A    between atoms: _545  and  _546
REMARK  210  A    between atoms: _545  and  _548
REMARK  211  A    between atoms: _548  and  _549
REMARK  212  A    between atoms: _551  and  _553
REMARK  213  A    between atoms: _553  and  _554
REMARK  214  A    between atoms: _553  and  _556
REMARK  215  A    between atoms: _556  and  _557
REMARK  216  A    between atoms: _562  and  _564
REMARK  217  A    between atoms: _564  and  _565
REMARK  218  A    between atoms: _564  and  _567
REMARK  219  A    between atoms: _567  and  _568
REMARK  220  A    between atoms: _571  and  _573
REMARK  221  A    between atoms: _573  and  _574
REMARK  222  A    between atoms: _573  and  _576
REMARK  223  A    between atoms: _576  and  _577
REMARK  224  A    between atoms: _582  and  _583
REMARK  225  A    between atoms: _585  and  _587
REMARK  226  A    between atoms: _587  and  _588
REMARK  227  A    between atoms: _587  and  _590
REMARK  228  A    between atoms: _590  and  _591
REMARK  229  A    between atoms: _596  and  _597
REMARK  230  A    between atoms: _599  and  _601
REMARK  231  A    between atoms: _601  and  _602
REMARK  232  A    between atoms: _601  and  _604
REMARK  233  A    between atoms: _607  and  _609
REMARK  234  A    between atoms: _609  and  _610
REMARK  235  A    between atoms: _609  and  _612
REMARK  236  A    between atoms: _612  and  _613
REMARK  237  A    between atoms: _618  and  _620
REMARK  238  A    between atoms: _620  and  _621
REMARK  239  A    between atoms: _624  and  _626
REMARK  240  A    between atoms: _626  and  _627
REMARK  241  A    between atoms: _626  and  _629
REMARK  242  A    between atoms: _629  and  _630
REMARK  243  A    between atoms: _630  and  _631
REMARK  244  A    between atoms: _631  and  _632
REMARK  245  A    between atoms: _641  and  _643
REMARK  246  A    between atoms: _643  and  _644
REMARK  247  A    between atoms: _643  and  _646
REMARK  248  A    between atoms: _646  and  _647
REMARK  249  A    between atoms: _650  and  _652
REMARK  250  A    between atoms: _652  and  _653
REMARK  251  A    between atoms: _652  and  _655
REMARK  252  A    between atoms: _655  and  _656
REMARK  253  A    between atoms: _659  and  _661
REMARK  254  A    between atoms: _661  and  _662
REMARK  255  A    between atoms: _661  and  _664
REMARK  256  A    between atoms: _664  and  _665
REMARK                            x       y       z     vdW  Elec       q    Type
REMARK                         _______ _______ _______ _____ _____    ______ ____
ROOT
ATOM      1  O   HOH     1      -9.671  21.448   9.072  0.00  0.00    +0.000 OA
ENDROOT
TORSDOF 0
REMARK  Name = ../refined-set-2016/1b6h/1b6h_pocket.pdb
REMARK  256 active torsions:
REMARK  status: ('A' for Active; 'I' for Inactive)
REMARK    1  A    between atoms: _1  and  _3
REMARK    2  A    between atoms: _3  and  _4
REMARK    3  A    between atoms: _3  and  _6
REMARK    4  A    between atoms: _6  and  _7
REMARK    5  A    between atoms: _12  and  _14
REMARK    6  A    between atoms: _14  and  _15
REMARK    7  A    between atoms: _17  and  _19
REMARK    8  A    between atoms: _19  and  _20
REMARK    9  A    between atoms: _19  and  _22
REMARK   10  A    between atoms: _22  and  _23
REMARK   11  A    between atoms: _23  and  _24
REMARK   12  A    between atoms: _29  and  _31
REMARK   13  A    between atoms: _31  and  _32
REMARK   14  A    between atoms: _31  and  _34
REMARK   15  A    between atoms: _34  and  _35
REMARK   16  A    between atoms: _38  and  _40
REMARK   17  A    between atoms: _40  and  _41
REMARK   18  A    between atoms: _40  and  _43
REMARK   19  A    between atoms: _43  and  _44
REMARK   20  A    between atoms: _44  and  _45
REMARK   21  A    between atoms: _48  and  _50
REMARK   22  A    between atoms: _50  and  _51
REMARK   23  A    between atoms: _53  and  _55
REMARK   24  A    between atoms: _55  and  _56
REMARK   25  A    between atoms: _55  and  _58
REMARK   26  A    between atoms: _62  and  _63
REMARK   27  A    between atoms: _68  and  _70
REMARK   28  A    between atoms: _70  and  _71
REMARK   29  A    between atoms: _70  and  _73
REMARK   30  A    between atoms: _73  and  _74
REMARK   31  A    between atoms: _74  and  _75
REMARK   32  A    between atoms: _78  and  _80
REMARK   33  A    between atoms: _80  and  _81
REMARK   34  A    between atoms: _80  and  _83
REMARK   35  A    between atoms: _83  and  _84
REMARK   36  A    between atoms: _86  and  _88
REMARK   37  A    between atoms: _88  and  _89
REMARK   38  A    between atoms: _88  and  _91
REMARK   39  A    between atoms: _91  and  _92
REMARK   40  A    between atoms: _97  and  _99
REMARK   41  A    between atoms: _99  and  _100
REMARK   42  A    between atoms: _99  and  _102
REMARK   43  A    between atoms: _102  and  _103
REMARK   44  A    between atoms: _103  and  _104
REMARK   45  A    between atoms: _104  and  _105
REMARK   46  A    between atoms: _115  and  _116
REMARK   47  A    between atoms: _121  and  _123
REMARK   48  A    between atoms: _123  and  _124
REMARK   49  A    between atoms: _123  and  _126
REMARK   50  A    between atoms: _126  and  _127
REMARK   51  A    between atoms: _132  and  _133
REMARK   52  A    between atoms: _135  and  _137
REMARK   53  A    between atoms: _137  and  _138
REMARK   54  A    between atoms: _137  and  _140
REMARK   55  A    between atoms: _140  and  _141
REMARK   56  A    between atoms: _146  and  _147
REMARK   57  A    between atoms: _149  and  _151
REMARK   58  A    between atoms: _151  and  _152
REMARK   59  A    between atoms: _151  and  _154
REMARK   60  A    between atoms: _157  and  _159
REMARK   61  A    between atoms: _159  and  _160
REMARK   62  A    between atoms: _159  and  _162
REMARK   63  A    between atoms: _162  and  _163
REMARK   64  A    between atoms: _169  and  _170
REMARK   65  A    between atoms: _175  and  _177
REMARK   66  A    between atoms: _177  and  _178
REMARK   67  A    between atoms: _177  and  _180
REMARK   68  A    between atoms: _180  and  _181
REMARK   69  A    between atoms: _183  and  _185
REMARK   70  A    between atoms: _185  and  _186
REMARK   71  A    between atoms: _185  and  _188
REMARK   72  A    between atoms: _188  and  _189
REMARK   73  A    between atoms: _189  and  _190
REMARK   74  A    between atoms: _193  and  _195
REMARK   75  A    between atoms: _195  and  _196
REMARK   76  A    between atoms: _195  and  _198
REMARK   77  A    between atoms: _198  and  _199
REMARK   78  A    between atoms: _204  and  _205
REMARK   79  A    between atoms: _207  and  _209
REMARK   80  A    between atoms: _209  and  _210
REMARK   81  A    between atoms: _209  and  _212
REMARK   82  A    between atoms: _212  and  _213
REMARK   83  A    between atoms: _218  and  _220
REMARK   84  A    between atoms: _220  and  _221
REMARK   85  A    between atoms: _220  and  _223
REMARK   86  A    between atoms: _223  and  _224
REMARK   87  A    between atoms: _229  and  _231
REMARK   88  A    between atoms: _231  and  _232
REMARK   89  A    between atoms: _231  and  _234
REMARK   90  A    between atoms: _234  and  _235
REMARK   91  A    between atoms: _235  and  _236
REMARK   92  A    between atoms: _238  and  _240
REMARK   93  A    between atoms: _240  and  _241
REMARK   94  A    between atoms: _240  and  _243
REMARK   95  A    between atoms: _243  and  _244
REMARK   96  A    between atoms: _249  and  _250
REMARK   97  A    between atoms: _252  and  _254
REMARK   98  A    between atoms: _254  and  _255
REMARK   99  A    between atoms: _254  and  _257
REMARK  100  A    between atoms: _257  and  _258
REMARK  101  A    between atoms: _261  and  _263
REMARK  102  A    between atoms: _263  and  _264
REMARK  103  A    between atoms: _263  and  _266
REMARK  104  A    between atoms: _266  and  _267
REMARK  105  A    between atoms: _267  and  _484
REMARK  106  A    between atoms: _268  and  _270
REMARK  107  A    between atoms: _270  and  _271
REMARK  108  A    between atoms: _270  and  _273
REMARK  109  A    between atoms: _273  and  _274
REMARK  110  A    between atoms: _277  and  _279
REMARK  111  A    between atoms: _279  and  _280
REMARK  112  A    between atoms: _279  and  _282
REMARK  113  A    between atoms: _282  and  _283
REMARK  114  A    between atoms: _288  and  _289
REMARK  115  A    between atoms: _291  and  _293
REMARK  116  A    between atoms: _293  and  _294
REMARK  117  A    between atoms: _293  and  _296
REMARK  118  A    between atoms: _296  and  _297
REMARK  119  A    between atoms: _302  and  _303
REMARK  120  A    between atoms: _305  and  _307
REMARK  121  A    between atoms: _307  and  _308
REMARK  122  A    between atoms: _307  and  _310
REMARK  123  A    between atoms: _310  and  _311
REMARK  124  A    between atoms: _311  and  _312
REMARK  125  A    between atoms: _315  and  _317
REMARK  126  A    between atoms: _317  and  _318
REMARK  127  A    between atoms: _317  and  _320
REMARK  128  A    between atoms: _320  and  _321
REMARK  129  A    between atoms: _326  and  _327
REMARK  130  A    between atoms: _329  and  _331
REMARK  131  A    between atoms: _331  and  _332
REMARK  132  A    between atoms: _331  and  _334
REMARK  133  A    between atoms: _334  and  _335
REMARK  134  A    between atoms: _340  and  _342
REMARK  135  A    between atoms: _342  and  _343
REMARK  136  A    between atoms: _342  and  _345
REMARK  137  A    between atoms: _345  and  _346
REMARK  138  A    between atoms: _349  and  _351
REMARK  139  A    between atoms: _351  and  _352
REMARK  140  A    between atoms: _351  and  _354
REMARK  141  A    between atoms: _354  and  _355
REMARK  142  A    between atoms: _360  and  _362
REMARK  143  A    between atoms: _362  and  _363
REMARK  144  A    between atoms: _362  and  _365
REMARK  145  A    between atoms: _365  and  _366
REMARK  146  A    between atoms: _376  and  _378
REMARK  147  A    between atoms: _378  and  _379
REMARK  148  A    between atoms: _378  and  _381
REMARK  149  A    between atoms: _381  and  _382
REMARK  150  A    between atoms: _388  and  _390
REMARK  151  A    between atoms: _390  and  _391
REMARK  152  A    between atoms: _390  and  _393
REMARK  153  A    between atoms: _393  and  _394
REMARK  154  A    between atoms: _397  and  _399
REMARK  155  A    between atoms: _399  and  _400
REMARK  156  A    between atoms: _399  and  _402
REMARK  157  A    between atoms: _402  and  _403
REMARK  158  A    between atoms: _406  and  _408
REMARK  159  A    between atoms: _408  and  _409
REMARK  160  A    between atoms: _408  and  _411
REMARK  161  A    between atoms: _411  and  _412
REMARK  162  A    between atoms: _412  and  _413
REMARK  163  A    between atoms: _413  and  _414
REMARK  164  A    between atoms: _423  and  _425
REMARK  165  A    between atoms: _425  and  _426
REMARK  166  A    between atoms: _425  and  _428
REMARK  167  A    between atoms: _428  and  _429
REMARK  168  A    between atoms: _434  and  _436
REMARK  169  A    between atoms: _436  and  _437
REMARK  170  A    between atoms: _436  and  _439
REMARK  171  A    between atoms: _439  and  _440
REMARK  172  A    between atoms: _441  and  _442
REMARK  173  A    between atoms: _451  and  _453
REMARK  174  A    between atoms: _453  and  _454
REMARK  175  A    between atoms: _457  and  _459
REMARK  176  A    between atoms: _459  and  _460
REMARK  177  A    between atoms: _462  and  _464
REMARK  178  A    between atoms: _464  and  _465
REMARK  179  A    between atoms: _464  and  _467
REMARK  180  A    between atoms: _467  and  _468
REMARK  181  A    between atoms: _478  and  _480
REMARK  182  A    between atoms: _480  and  _481
REMARK  183  A    between atoms: _480  and  _483
REMARK  184  A    between atoms: _483  and  _484
REMARK  185  A    between atoms: _485  and  _487
REMARK  186  A    between atoms: _487  and  _488
REMARK  187  A    between atoms: _491  and  _493
REMARK  188  A    between atoms: _493  and  _494
REMARK  189  A    between atoms: _493  and  _496
REMARK  190  A    between atoms: _496  and  _497
REMARK  191  A    between atoms: _500  and  _502
REMARK  192  A    between atoms: _502  and  _503
REMARK  193  A    between atoms: _502  and  _505
REMARK  194  A    between atoms: _505  and  _506
REMARK  195  A    between atoms: _511  and  _512
REMARK  196  A    between atoms: _514  and  _516
REMARK  197  A    between atoms: _516  and  _517
REMARK  198  A    between atoms: _516  and  _519
REMARK  199  A    between atoms: _519  and  _520
REMARK  200  A    between atoms: _522  and  _524
REMARK  201  A    between atoms: _524  and  _525
REMARK  202  A    between atoms: _524  and  _527
REMARK  203  A    between atoms: _527  and  _528
REMARK  204  A    between atoms: _534  and  _536
REMARK  205  A    between atoms: _536  and  _537
REMARK  206  A    between atoms: _536  and  _539
REMARK  207  A    between atoms: _539  and  _540
REMARK  208  A    between atoms: _543  and  _545
REMARK  209  A    between atoms: _545  and  _546
REMARK  210  A    between atoms: _545  and  _548
REMARK  211  A    between atoms: _548  and  _549
REMARK  212  A    between atoms: _551  and  _553
REMARK  213  A    between atoms: _553  and  _554
REMARK  214  A    between atoms: _553  and  _556
REMARK  215  A    between atoms: _556  and  _557
REMARK  216  A    between atoms: _562  and  _564
REMARK  217  A    between atoms: _564  and  _565
REMARK  218  A    between atoms: _564  and  _567
REMARK  219  A    between atoms: _567  and  _568
REMARK  220  A    between atoms: _571  and  _573
REMARK  221  A    between atoms: _573  and  _574
REMARK  222  A    between atoms: _573  and  _576
REMARK  223  A    between atoms: _576  and  _577
REMARK  224  A    between atoms: _582  and  _583
REMARK  225  A    between atoms: _585  and  _587
REMARK  226  A    between atoms: _587  and  _588
REMARK  227  A    between atoms: _587  and  _590
REMARK  228  A    between atoms: _590  and  _591
REMARK  229  A    between atoms: _596  and  _597
REMARK  230  A    between atoms: _599  and  _601
REMARK  231  A    between atoms: _601  and  _602
REMARK  232  A    between atoms: _601  and  _604
REMARK  233  A    between atoms: _607  and  _609
REMARK  234  A    between atoms: _609  and  _610
REMARK  235  A    between atoms: _609  and  _612
REMARK  236  A    between atoms: _612  and  _613
REMARK  237  A    between atoms: _618  and  _620
REMARK  238  A    between atoms: _620  and  _621
REMARK  239  A    between atoms: _624  and  _626
REMARK  240  A    between atoms: _626  and  _627
REMARK  241  A    between atoms: _626  and  _629
REMARK  242  A    between atoms: _629  and  _630
REMARK  243  A    between atoms: _630  and  _631
REMARK  244  A    between atoms: _631  and  _632
REMARK  245  A    between atoms: _641  and  _643
REMARK  246  A    between atoms: _643  and  _644
REMARK  247  A    between atoms: _643  and  _646
REMARK  248  A    between atoms: _646  and  _647
REMARK  249  A    between atoms: _650  and  _652
REMARK  250  A    between atoms: _652  and  _653
REMARK  251  A    between atoms: _652  and  _655
REMARK  252  A    between atoms: _655  and  _656
REMARK  253  A    between atoms: _659  and  _661
REMARK  254  A    between atoms: _661  and  _662
REMARK  255  A    between atoms: _661  and  _664
REMARK  256  A    between atoms: _664  and  _665
REMARK                            x       y       z     vdW  Elec       q    Type
REMARK                         _______ _______ _______ _____ _____    ______ ____
ROOT
ATOM      1  O   HOH     1      -7.950  23.547   9.735  0.00  0.00    +0.000 OA
ENDROOT
TORSDOF 0
REMARK  Name = ../refined-set-2016/1b6h/1b6h_pocket.pdb
REMARK  256 active torsions:
REMARK  status: ('A' for Active; 'I' for Inactive)
REMARK    1  A    between atoms: _1  and  _3
REMARK    2  A    between atoms: _3  and  _4
REMARK    3  A    between atoms: _3  and  _6
REMARK    4  A    between atoms: _6  and  _7
REMARK    5  A    between atoms: _12  and  _14
REMARK    6  A    between atoms: _14  and  _15
REMARK    7  A    between atoms: _17  and  _19
REMARK    8  A    between atoms: _19  and  _20
REMARK    9  A    between atoms: _19  and  _22
REMARK   10  A    between atoms: _22  and  _23
REMARK   11  A    between atoms: _23  and  _24
REMARK   12  A    between atoms: _29  and  _31
REMARK   13  A    between atoms: _31  and  _32
REMARK   14  A    between atoms: _31  and  _34
REMARK   15  A    between atoms: _34  and  _35
REMARK   16  A    between atoms: _38  and  _40
REMARK   17  A    between atoms: _40  and  _41
REMARK   18  A    between atoms: _40  and  _43
REMARK   19  A    between atoms: _43  and  _44
REMARK   20  A    between atoms: _44  and  _45
REMARK   21  A    between atoms: _48  and  _50
REMARK   22  A    between atoms: _50  and  _51
REMARK   23  A    between atoms: _53  and  _55
REMARK   24  A    between atoms: _55  and  _56
REMARK   25  A    between atoms: _55  and  _58
REMARK   26  A    between atoms: _62  and  _63
REMARK   27  A    between atoms: _68  and  _70
REMARK   28  A    between atoms: _70  and  _71
REMARK   29  A    between atoms: _70  and  _73
REMARK   30  A    between atoms: _73  and  _74
REMARK   31  A    between atoms: _74  and  _75
REMARK   32  A    between atoms: _78  and  _80
REMARK   33  A    between atoms: _80  and  _81
REMARK   34  A    between atoms: _80  and  _83
REMARK   35  A    between atoms: _83  and  _84
REMARK   36  A    between atoms: _86  and  _88
REMARK   37  A    between atoms: _88  and  _89
REMARK   38  A    between atoms: _88  and  _91
REMARK   39  A    between atoms: _91  and  _92
REMARK   40  A    between atoms: _97  and  _99
REMARK   41  A    between atoms: _99  and  _100
REMARK   42  A    between atoms: _99  and  _102
REMARK   43  A    between atoms: _102  and  _103
REMARK   44  A    between atoms: _103  and  _104
REMARK   45  A    between atoms: _104  and  _105
REMARK   46  A    between atoms: _115  and  _116
REMARK   47  A    between atoms: _121  and  _123
REMARK   48  A    between atoms: _123  and  _124
REMARK   49  A    between atoms: _123  and  _126
REMARK   50  A    between atoms: _126  and  _127
REMARK   51  A    between atoms: _132  and  _133
REMARK   52  A    between atoms: _135  and  _137
REMARK   53  A    between atoms: _137  and  _138
REMARK   54  A    between atoms: _137  and  _140
REMARK   55  A    between atoms: _140  and  _141
REMARK   56  A    between atoms: _146  and  _147
REMARK   57  A    between atoms: _149  and  _151
REMARK   58  A    between atoms: _151  and  _152
REMARK   59  A    between atoms: _151  and  _154
REMARK   60  A    between atoms: _157  and  _159
REMARK   61  A    between atoms: _159  and  _160
REMARK   62  A    between atoms: _159  and  _162
REMARK   63  A    between atoms: _162  and  _163
REMARK   64  A    between atoms: _169  and  _170
REMARK   65  A    between atoms: _175  and  _177
REMARK   66  A    between atoms: _177  and  _178
REMARK   67  A    between atoms: _177  and  _180
REMARK   68  A    between atoms: _180  and  _181
REMARK   69  A    between atoms: _183  and  _185
REMARK   70  A    between atoms: _185  and  _186
REMARK   71  A    between atoms: _185  and  _188
REMARK   72  A    between atoms: _188  and  _189
REMARK   73  A    between atoms: _189  and  _190
REMARK   74  A    between atoms: _193  and  _195
REMARK   75  A    between atoms: _195  and  _196
REMARK   76  A    between atoms: _195  and  _198
REMARK   77  A    between atoms: _198  and  _199
REMARK   78  A    between atoms: _204  and  _205
REMARK   79  A    between atoms: _207  and  _209
REMARK   80  A    between atoms: _209  and  _210
REMARK   81  A    between atoms: _209  and  _212
REMARK   82  A    between atoms: _212  and  _213
REMARK   83  A    between atoms: _218  and  _220
REMARK   84  A    between atoms: _220  and  _221
REMARK   85  A    between atoms: _220  and  _223
REMARK   86  A    between atoms: _223  and  _224
REMARK   87  A    between atoms: _229  and  _231
REMARK   88  A    between atoms: _231  and  _232
REMARK   89  A    between atoms: _231  and  _234
REMARK   90  A    between atoms: _234  and  _235
REMARK   91  A    between atoms: _235  and  _236
REMARK   92  A    between atoms: _238  and  _240
REMARK   93  A    between atoms: _240  and  _241
REMARK   94  A    between atoms: _240  and  _243
REMARK   95  A    between atoms: _243  and  _244
REMARK   96  A    between atoms: _249  and  _250
REMARK   97  A    between atoms: _252  and  _254
REMARK   98  A    between atoms: _254  and  _255
REMARK   99  A    between atoms: _254  and  _257
REMARK  100  A    between atoms: _257  and  _258
REMARK  101  A    between atoms: _261  and  _263
REMARK  102  A    between atoms: _263  and  _264
REMARK  103  A    between atoms: _263  and  _266
REMARK  104  A    between atoms: _266  and  _267
REMARK  105  A    between atoms: _267  and  _484
REMARK  106  A    between atoms: _268  and  _270
REMARK  107  A    between atoms: _270  and  _271
REMARK  108  A    between atoms: _270  and  _273
REMARK  109  A    between atoms: _273  and  _274
REMARK  110  A    between atoms: _277  and  _279
REMARK  111  A    between atoms: _279  and  _280
REMARK  112  A    between atoms: _279  and  _282
REMARK  113  A    between atoms: _282  and  _283
REMARK  114  A    between atoms: _288  and  _289
REMARK  115  A    between atoms: _291  and  _293
REMARK  116  A    between atoms: _293  and  _294
REMARK  117  A    between atoms: _293  and  _296
REMARK  118  A    between atoms: _296  and  _297
REMARK  119  A    between atoms: _302  and  _303
REMARK  120  A    between atoms: _305  and  _307
REMARK  121  A    between atoms: _307  and  _308
REMARK  122  A    between atoms: _307  and  _310
REMARK  123  A    between atoms: _310  and  _311
REMARK  124  A    between atoms: _311  and  _312
REMARK  125  A    between atoms: _315  and  _317
REMARK  126  A    between atoms: _317  and  _318
REMARK  127  A    between atoms: _317  and  _320
REMARK  128  A    between atoms: _320  and  _321
REMARK  129  A    between atoms: _326  and  _327
REMARK  130  A    between atoms: _329  and  _331
REMARK  131  A    between atoms: _331  and  _332
REMARK  132  A    between atoms: _331  and  _334
REMARK  133  A    between atoms: _334  and  _335
REMARK  134  A    between atoms: _340  and  _342
REMARK  135  A    between atoms: _342  and  _343
REMARK  136  A    between atoms: _342  and  _345
REMARK  137  A    between atoms: _345  and  _346
REMARK  138  A    between atoms: _349  and  _351
REMARK  139  A    between atoms: _351  and  _352
REMARK  140  A    between atoms: _351  and  _354
REMARK  141  A    between atoms: _354  and  _355
REMARK  142  A    between atoms: _360  and  _362
REMARK  143  A    between atoms: _362  and  _363
REMARK  144  A    between atoms: _362  and  _365
REMARK  145  A    between atoms: _365  and  _366
REMARK  146  A    between atoms: _376  and  _378
REMARK  147  A    between atoms: _378  and  _379
REMARK  148  A    between atoms: _378  and  _381
REMARK  149  A    between atoms: _381  and  _382
REMARK  150  A    between atoms: _388  and  _390
REMARK  151  A    between atoms: _390  and  _391
REMARK  152  A    between atoms: _390  and  _393
REMARK  153  A    between atoms: _393  and  _394
REMARK  154  A    between atoms: _397  and  _399
REMARK  155  A    between atoms: _399  and  _400
REMARK  156  A    between atoms: _399  and  _402
REMARK  157  A    between atoms: _402  and  _403
REMARK  158  A    between atoms: _406  and  _408
REMARK  159  A    between atoms: _408  and  _409
REMARK  160  A    between atoms: _408  and  _411
REMARK  161  A    between atoms: _411  and  _412
REMARK  162  A    between atoms: _412  and  _413
REMARK  163  A    between atoms: _413  and  _414
REMARK  164  A    between atoms: _423  and  _425
REMARK  165  A    between atoms: _425  and  _426
REMARK  166  A    between atoms: _425  and  _428
REMARK  167  A    between atoms: _428  and  _429
REMARK  168  A    between atoms: _434  and  _436
REMARK  169  A    between atoms: _436  and  _437
REMARK  170  A    between atoms: _436  and  _439
REMARK  171  A    between atoms: _439  and  _440
REMARK  172  A    between atoms: _441  and  _442
REMARK  173  A    between atoms: _451  and  _453
REMARK  174  A    between atoms: _453  and  _454
REMARK  175  A    between atoms: _457  and  _459
REMARK  176  A    between atoms: _459  and  _460
REMARK  177  A    between atoms: _462  and  _464
REMARK  178  A    between atoms: _464  and  _465
REMARK  179  A    between atoms: _464  and  _467
REMARK  180  A    between atoms: _467  and  _468
REMARK  181  A    between atoms: _478  and  _480
REMARK  182  A    between atoms: _480  and  _481
REMARK  183  A    between atoms: _480  and  _483
REMARK  184  A    between atoms: _483  and  _484
REMARK  185  A    between atoms: _485  and  _487
REMARK  186  A    between atoms: _487  and  _488
REMARK  187  A    between atoms: _491  and  _493
REMARK  188  A    between atoms: _493  and  _494
REMARK  189  A    between atoms: _493  and  _496
REMARK  190  A    between atoms: _496  and  _497
REMARK  191  A    between atoms: _500  and  _502
REMARK  192  A    between atoms: _502  and  _503
REMARK  193  A    between atoms: _502  and  _505
REMARK  194  A    between atoms: _505  and  _506
REMARK  195  A    between atoms: _511  and  _512
REMARK  196  A    between atoms: _514  and  _516
REMARK  197  A    between atoms: _516  and  _517
REMARK  198  A    between atoms: _516  and  _519
REMARK  199  A    between atoms: _519  and  _520
REMARK  200  A    between atoms: _522  and  _524
REMARK  201  A    between atoms: _524  and  _525
REMARK  202  A    between atoms: _524  and  _527
REMARK  203  A    between atoms: _527  and  _528
REMARK  204  A    between atoms: _534  and  _536
REMARK  205  A    between atoms: _536  and  _537
REMARK  206  A    between atoms: _536  and  _539
REMARK  207  A    between atoms: _539  and  _540
REMARK  208  A    between atoms: _543  and  _545
REMARK  209  A    between atoms: _545  and  _546
REMARK  210  A    between atoms: _545  and  _548
REMARK  211  A    between atoms: _548  and  _549
REMARK  212  A    between atoms: _551  and  _553
REMARK  213  A    between atoms: _553  and  _554
REMARK  214  A    between atoms: _553  and  _556
REMARK  215  A    between atoms: _556  and  _557
REMARK  216  A    between atoms: _562  and  _564
REMARK  217  A    between atoms: _564  and  _565
REMARK  218  A    between atoms: _564  and  _567
REMARK  219  A    between atoms: _567  and  _568
REMARK  220  A    between atoms: _571  and  _573
REMARK  221  A    between atoms: _573  and  _574
REMARK  222  A    between atoms: _573  and  _576
REMARK  223  A    between atoms: _576  and  _577
REMARK  224  A    between atoms: _582  and  _583
REMARK  225  A    between atoms: _585  and  _587
REMARK  226  A    between atoms: _587  and  _588
REMARK  227  A    between atoms: _587  and  _590
REMARK  228  A    between atoms: _590  and  _591
REMARK  229  A    between atoms: _596  and  _597
REMARK  230  A    between atoms: _599  and  _601
REMARK  231  A    between atoms: _601  and  _602
REMARK  232  A    between atoms: _601  and  _604
REMARK  233  A    between atoms: _607  and  _609
REMARK  234  A    between atoms: _609  and  _610
REMARK  235  A    between atoms: _609  and  _612
REMARK  236  A    between atoms: _612  and  _613
REMARK  237  A    between atoms: _618  and  _620
REMARK  238  A    between atoms: _620  and  _621
REMARK  239  A    between atoms: _624  and  _626
REMARK  240  A    between atoms: _626  and  _627
REMARK  241  A    between atoms: _626  and  _629
REMARK  242  A    between atoms: _629  and  _630
REMARK  243  A    between atoms: _630  and  _631
REMARK  244  A    between atoms: _631  and  _632
REMARK  245  A    between atoms: _641  and  _643
REMARK  246  A    between atoms: _643  and  _644
REMARK  247  A    between atoms: _643  and  _646
REMARK  248  A    between atoms: _646  and  _647
REMARK  249  A    between atoms: _650  and  _652
REMARK  250  A    between atoms: _652  and  _653
REMARK  251  A    between atoms: _652  and  _655
REMARK  252  A    between atoms: _655  and  _656
REMARK  253  A    between atoms: _659  and  _661
REMARK  254  A    between atoms: _661  and  _662
REMARK  255  A    between atoms: _661  and  _664
REMARK  256  A    between atoms: _664  and  _665
REMARK                            x       y       z     vdW  Elec       q    Type
REMARK                         _______ _______ _______ _____ _____    ______ ____
ROOT
ATOM      1  O   HOH     1      -4.408  27.591  13.667  0.00  0.00    +0.000 OA
ENDROOT
TORSDOF 0
REMARK  Name = ../refined-set-2016/1b6h/1b6h_pocket.pdb
REMARK  256 active torsions:
REMARK  status: ('A' for Active; 'I' for Inactive)
REMARK    1  A    between atoms: _1  and  _3
REMARK    2  A    between atoms: _3  and  _4
REMARK    3  A    between atoms: _3  and  _6
REMARK    4  A    between atoms: _6  and  _7
REMARK    5  A    between atoms: _12  and  _14
REMARK    6  A    between atoms: _14  and  _15
REMARK    7  A    between atoms: _17  and  _19
REMARK    8  A    between atoms: _19  and  _20
REMARK    9  A    between atoms: _19  and  _22
REMARK   10  A    between atoms: _22  and  _23
REMARK   11  A    between atoms: _23  and  _24
REMARK   12  A    between atoms: _29  and  _31
REMARK   13  A    between atoms: _31  and  _32
REMARK   14  A    between atoms: _31  and  _34
REMARK   15  A    between atoms: _34  and  _35
REMARK   16  A    between atoms: _38  and  _40
REMARK   17  A    between atoms: _40  and  _41
REMARK   18  A    between atoms: _40  and  _43
REMARK   19  A    between atoms: _43  and  _44
REMARK   20  A    between atoms: _44  and  _45
REMARK   21  A    between atoms: _48  and  _50
REMARK   22  A    between atoms: _50  and  _51
REMARK   23  A    between atoms: _53  and  _55
REMARK   24  A    between atoms: _55  and  _56
REMARK   25  A    between atoms: _55  and  _58
REMARK   26  A    between atoms: _62  and  _63
REMARK   27  A    between atoms: _68  and  _70
REMARK   28  A    between atoms: _70  and  _71
REMARK   29  A    between atoms: _70  and  _73
REMARK   30  A    between atoms: _73  and  _74
REMARK   31  A    between atoms: _74  and  _75
REMARK   32  A    between atoms: _78  and  _80
REMARK   33  A    between atoms: _80  and  _81
REMARK   34  A    between atoms: _80  and  _83
REMARK   35  A    between atoms: _83  and  _84
REMARK   36  A    between atoms: _86  and  _88
REMARK   37  A    between atoms: _88  and  _89
REMARK   38  A    between atoms: _88  and  _91
REMARK   39  A    between atoms: _91  and  _92
REMARK   40  A    between atoms: _97  and  _99
REMARK   41  A    between atoms: _99  and  _100
REMARK   42  A    between atoms: _99  and  _102
REMARK   43  A    between atoms: _102  and  _103
REMARK   44  A    between atoms: _103  and  _104
REMARK   45  A    between atoms: _104  and  _105
REMARK   46  A    between atoms: _115  and  _116
REMARK   47  A    between atoms: _121  and  _123
REMARK   48  A    between atoms: _123  and  _124
REMARK   49  A    between atoms: _123  and  _126
REMARK   50  A    between atoms: _126  and  _127
REMARK   51  A    between atoms: _132  and  _133
REMARK   52  A    between atoms: _135  and  _137
REMARK   53  A    between atoms: _137  and  _138
REMARK   54  A    between atoms: _137  and  _140
REMARK   55  A    between atoms: _140  and  _141
REMARK   56  A    between atoms: _146  and  _147
REMARK   57  A    between atoms: _149  and  _151
REMARK   58  A    between atoms: _151  and  _152
REMARK   59  A    between atoms: _151  and  _154
REMARK   60  A    between atoms: _157  and  _159
REMARK   61  A    between atoms: _159  and  _160
REMARK   62  A    between atoms: _159  and  _162
REMARK   63  A    between atoms: _162  and  _163
REMARK   64  A    between atoms: _169  and  _170
REMARK   65  A    between atoms: _175  and  _177
REMARK   66  A    between atoms: _177  and  _178
REMARK   67  A    between atoms: _177  and  _180
REMARK   68  A    between atoms: _180  and  _181
REMARK   69  A    between atoms: _183  and  _185
REMARK   70  A    between atoms: _185  and  _186
REMARK   71  A    between atoms: _185  and  _188
REMARK   72  A    between atoms: _188  and  _189
REMARK   73  A    between atoms: _189  and  _190
REMARK   74  A    between atoms: _193  and  _195
REMARK   75  A    between atoms: _195  and  _196
REMARK   76  A    between atoms: _195  and  _198
REMARK   77  A    between atoms: _198  and  _199
REMARK   78  A    between atoms: _204  and  _205
REMARK   79  A    between atoms: _207  and  _209
REMARK   80  A    between atoms: _209  and  _210
REMARK   81  A    between atoms: _209  and  _212
REMARK   82  A    between atoms: _212  and  _213
REMARK   83  A    between atoms: _218  and  _220
REMARK   84  A    between atoms: _220  and  _221
REMARK   85  A    between atoms: _220  and  _223
REMARK   86  A    between atoms: _223  and  _224
REMARK   87  A    between atoms: _229  and  _231
REMARK   88  A    between atoms: _231  and  _232
REMARK   89  A    between atoms: _231  and  _234
REMARK   90  A    between atoms: _234  and  _235
REMARK   91  A    between atoms: _235  and  _236
REMARK   92  A    between atoms: _238  and  _240
REMARK   93  A    between atoms: _240  and  _241
REMARK   94  A    between atoms: _240  and  _243
REMARK   95  A    between atoms: _243  and  _244
REMARK   96  A    between atoms: _249  and  _250
REMARK   97  A    between atoms: _252  and  _254
REMARK   98  A    between atoms: _254  and  _255
REMARK   99  A    between atoms: _254  and  _257
REMARK  100  A    between atoms: _257  and  _258
REMARK  101  A    between atoms: _261  and  _263
REMARK  102  A    between atoms: _263  and  _264
REMARK  103  A    between atoms: _263  and  _266
REMARK  104  A    between atoms: _266  and  _267
REMARK  105  A    between atoms: _267  and  _484
REMARK  106  A    between atoms: _268  and  _270
REMARK  107  A    between atoms: _270  and  _271
REMARK  108  A    between atoms: _270  and  _273
REMARK  109  A    between atoms: _273  and  _274
REMARK  110  A    between atoms: _277  and  _279
REMARK  111  A    between atoms: _279  and  _280
REMARK  112  A    between atoms: _279  and  _282
REMARK  113  A    between atoms: _282  and  _283
REMARK  114  A    between atoms: _288  and  _289
REMARK  115  A    between atoms: _291  and  _293
REMARK  116  A    between atoms: _293  and  _294
REMARK  117  A    between atoms: _293  and  _296
REMARK  118  A    between atoms: _296  and  _297
REMARK  119  A    between atoms: _302  and  _303
REMARK  120  A    between atoms: _305  and  _307
REMARK  121  A    between atoms: _307  and  _308
REMARK  122  A    between atoms: _307  and  _310
REMARK  123  A    between atoms: _310  and  _311
REMARK  124  A    between atoms: _311  and  _312
REMARK  125  A    between atoms: _315  and  _317
REMARK  126  A    between atoms: _317  and  _318
REMARK  127  A    between atoms: _317  and  _320
REMARK  128  A    between atoms: _320  and  _321
REMARK  129  A    between atoms: _326  and  _327
REMARK  130  A    between atoms: _329  and  _331
REMARK  131  A    between atoms: _331  and  _332
REMARK  132  A    between atoms: _331  and  _334
REMARK  133  A    between atoms: _334  and  _335
REMARK  134  A    between atoms: _340  and  _342
REMARK  135  A    between atoms: _342  and  _343
REMARK  136  A    between atoms: _342  and  _345
REMARK  137  A    between atoms: _345  and  _346
REMARK  138  A    between atoms: _349  and  _351
REMARK  139  A    between atoms: _351  and  _352
REMARK  140  A    between atoms: _351  and  _354
REMARK  141  A    between atoms: _354  and  _355
REMARK  142  A    between atoms: _360  and  _362
REMARK  143  A    between atoms: _362  and  _363
REMARK  144  A    between atoms: _362  and  _365
REMARK  145  A    between atoms: _365  and  _366
REMARK  146  A    between atoms: _376  and  _378
REMARK  147  A    between atoms: _378  and  _379
REMARK  148  A    between atoms: _378  and  _381
REMARK  149  A    between atoms: _381  and  _382
REMARK  150  A    between atoms: _388  and  _390
REMARK  151  A    between atoms: _390  and  _391
REMARK  152  A    between atoms: _390  and  _393
REMARK  153  A    between atoms: _393  and  _394
REMARK  154  A    between atoms: _397  and  _399
REMARK  155  A    between atoms: _399  and  _400
REMARK  156  A    between atoms: _399  and  _402
REMARK  157  A    between atoms: _402  and  _403
REMARK  158  A    between atoms: _406  and  _408
REMARK  159  A    between atoms: _408  and  _409
REMARK  160  A    between atoms: _408  and  _411
REMARK  161  A    between atoms: _411  and  _412
REMARK  162  A    between atoms: _412  and  _413
REMARK  163  A    between atoms: _413  and  _414
REMARK  164  A    between atoms: _423  and  _425
REMARK  165  A    between atoms: _425  and  _426
REMARK  166  A    between atoms: _425  and  _428
REMARK  167  A    between atoms: _428  and  _429
REMARK  168  A    between atoms: _434  and  _436
REMARK  169  A    between atoms: _436  and  _437
REMARK  170  A    between atoms: _436  and  _439
REMARK  171  A    between atoms: _439  and  _440
REMARK  172  A    between atoms: _441  and  _442
REMARK  173  A    between atoms: _451  and  _453
REMARK  174  A    between atoms: _453  and  _454
REMARK  175  A    between atoms: _457  and  _459
REMARK  176  A    between atoms: _459  and  _460
REMARK  177  A    between atoms: _462  and  _464
REMARK  178  A    between atoms: _464  and  _465
REMARK  179  A    between atoms: _464  and  _467
REMARK  180  A    between atoms: _467  and  _468
REMARK  181  A    between atoms: _478  and  _480
REMARK  182  A    between atoms: _480  and  _481
REMARK  183  A    between atoms: _480  and  _483
REMARK  184  A    between atoms: _483  and  _484
REMARK  185  A    between atoms: _485  and  _487
REMARK  186  A    between atoms: _487  and  _488
REMARK  187  A    between atoms: _491  and  _493
REMARK  188  A    between atoms: _493  and  _494
REMARK  189  A    between atoms: _493  and  _496
REMARK  190  A    between atoms: _496  and  _497
REMARK  191  A    between atoms: _500  and  _502
REMARK  192  A    between atoms: _502  and  _503
REMARK  193  A    between atoms: _502  and  _505
REMARK  194  A    between atoms: _505  and  _506
REMARK  195  A    between atoms: _511  and  _512
REMARK  196  A    between atoms: _514  and  _516
REMARK  197  A    between atoms: _516  and  _517
REMARK  198  A    between atoms: _516  and  _519
REMARK  199  A    between atoms: _519  and  _520
REMARK  200  A    between atoms: _522  and  _524
REMARK  201  A    between atoms: _524  and  _525
REMARK  202  A    between atoms: _524  and  _527
REMARK  203  A    between atoms: _527  and  _528
REMARK  204  A    between atoms: _534  and  _536
REMARK  205  A    between atoms: _536  and  _537
REMARK  206  A    between atoms: _536  and  _539
REMARK  207  A    between atoms: _539  and  _540
REMARK  208  A    between atoms: _543  and  _545
REMARK  209  A    between atoms: _545  and  _546
REMARK  210  A    between atoms: _545  and  _548
REMARK  211  A    between atoms: _548  and  _549
REMARK  212  A    between atoms: _551  and  _553
REMARK  213  A    between atoms: _553  and  _554
REMARK  214  A    between atoms: _553  and  _556
REMARK  215  A    between atoms: _556  and  _557
REMARK  216  A    between atoms: _562  and  _564
REMARK  217  A    between atoms: _564  and  _565
REMARK  218  A    between atoms: _564  and  _567
REMARK  219  A    between atoms: _567  and  _568
REMARK  220  A    between atoms: _571  and  _573
REMARK  221  A    between atoms: _573  and  _574
REMARK  222  A    between atoms: _573  and  _576
REMARK  223  A    between atoms: _576  and  _577
REMARK  224  A    between atoms: _582  and  _583
REMARK  225  A    between atoms: _585  and  _587
REMARK  226  A    between atoms: _587  and  _588
REMARK  227  A    between atoms: _587  and  _590
REMARK  228  A    between atoms: _590  and  _591
REMARK  229  A    between atoms: _596  and  _597
REMARK  230  A    between atoms: _599  and  _601
REMARK  231  A    between atoms: _601  and  _602
REMARK  232  A    between atoms: _601  and  _604
REMARK  233  A    between atoms: _607  and  _609
REMARK  234  A    between atoms: _609  and  _610
REMARK  235  A    between atoms: _609  and  _612
REMARK  236  A    between atoms: _612  and  _613
REMARK  237  A    between atoms: _618  and  _620
REMARK  238  A    between atoms: _620  and  _621
REMARK  239  A    between atoms: _624  and  _626
REMARK  240  A    between atoms: _626  and  _627
REMARK  241  A    between atoms: _626  and  _629
REMARK  242  A    between atoms: _629  and  _630
REMARK  243  A    between atoms: _630  and  _631
REMARK  244  A    between atoms: _631  and  _632
REMARK  245  A    between atoms: _641  and  _643
REMARK  246  A    between atoms: _643  and  _644
REMARK  247  A    between atoms: _643  and  _646
REMARK  248  A    between atoms: _646  and  _647
REMARK  249  A    between atoms: _650  and  _652
REMARK  250  A    between atoms: _652  and  _653
REMARK  251  A    between atoms: _652  and  _655
REMARK  252  A    between atoms: _655  and  _656
REMARK  253  A    between atoms: _659  and  _661
REMARK  254  A    between atoms: _661  and  _662
REMARK  255  A    between atoms: _661  and  _664
REMARK  256  A    between atoms: _664  and  _665
REMARK                            x       y       z     vdW  Elec       q    Type
REMARK                         _______ _______ _______ _____ _____    ______ ____
ROOT
ATOM      1  O   HOH     1       9.121  22.134  18.426  0.00  0.00    +0.000 OA
ENDROOT
TORSDOF 0
REMARK  Name = ../refined-set-2016/1b6h/1b6h_pocket.pdb
REMARK  256 active torsions:
REMARK  status: ('A' for Active; 'I' for Inactive)
REMARK    1  A    between atoms: _1  and  _3
REMARK    2  A    between atoms: _3  and  _4
REMARK    3  A    between atoms: _3  and  _6
REMARK    4  A    between atoms: _6  and  _7
REMARK    5  A    between atoms: _12  and  _14
REMARK    6  A    between atoms: _14  and  _15
REMARK    7  A    between atoms: _17  and  _19
REMARK    8  A    between atoms: _19  and  _20
REMARK    9  A    between atoms: _19  and  _22
REMARK   10  A    between atoms: _22  and  _23
REMARK   11  A    between atoms: _23  and  _24
REMARK   12  A    between atoms: _29  and  _31
REMARK   13  A    between atoms: _31  and  _32
REMARK   14  A    between atoms: _31  and  _34
REMARK   15  A    between atoms: _34  and  _35
REMARK   16  A    between atoms: _38  and  _40
REMARK   17  A    between atoms: _40  and  _41
REMARK   18  A    between atoms: _40  and  _43
REMARK   19  A    between atoms: _43  and  _44
REMARK   20  A    between atoms: _44  and  _45
REMARK   21  A    between atoms: _48  and  _50
REMARK   22  A    between atoms: _50  and  _51
REMARK   23  A    between atoms: _53  and  _55
REMARK   24  A    between atoms: _55  and  _56
REMARK   25  A    between atoms: _55  and  _58
REMARK   26  A    between atoms: _62  and  _63
REMARK   27  A    between atoms: _68  and  _70
REMARK   28  A    between atoms: _70  and  _71
REMARK   29  A    between atoms: _70  and  _73
REMARK   30  A    between atoms: _73  and  _74
REMARK   31  A    between atoms: _74  and  _75
REMARK   32  A    between atoms: _78  and  _80
REMARK   33  A    between atoms: _80  and  _81
REMARK   34  A    between atoms: _80  and  _83
REMARK   35  A    between atoms: _83  and  _84
REMARK   36  A    between atoms: _86  and  _88
REMARK   37  A    between atoms: _88  and  _89
REMARK   38  A    between atoms: _88  and  _91
REMARK   39  A    between atoms: _91  and  _92
REMARK   40  A    between atoms: _97  and  _99
REMARK   41  A    between atoms: _99  and  _100
REMARK   42  A    between atoms: _99  and  _102
REMARK   43  A    between atoms: _102  and  _103
REMARK   44  A    between atoms: _103  and  _104
REMARK   45  A    between atoms: _104  and  _105
REMARK   46  A    between atoms: _115  and  _116
REMARK   47  A    between atoms: _121  and  _123
REMARK   48  A    between atoms: _123  and  _124
REMARK   49  A    between atoms: _123  and  _126
REMARK   50  A    between atoms: _126  and  _127
REMARK   51  A    between atoms: _132  and  _133
REMARK   52  A    between atoms: _135  and  _137
REMARK   53  A    between atoms: _137  and  _138
REMARK   54  A    between atoms: _137  and  _140
REMARK   55  A    between atoms: _140  and  _141
REMARK   56  A    between atoms: _146  and  _147
REMARK   57  A    between atoms: _149  and  _151
REMARK   58  A    between atoms: _151  and  _152
REMARK   59  A    between atoms: _151  and  _154
REMARK   60  A    between atoms: _157  and  _159
REMARK   61  A    between atoms: _159  and  _160
REMARK   62  A    between atoms: _159  and  _162
REMARK   63  A    between atoms: _162  and  _163
REMARK   64  A    between atoms: _169  and  _170
REMARK   65  A    between atoms: _175  and  _177
REMARK   66  A    between atoms: _177  and  _178
REMARK   67  A    between atoms: _177  and  _180
REMARK   68  A    between atoms: _180  and  _181
REMARK   69  A    between atoms: _183  and  _185
REMARK   70  A    between atoms: _185  and  _186
REMARK   71  A    between atoms: _185  and  _188
REMARK   72  A    between atoms: _188  and  _189
REMARK   73  A    between atoms: _189  and  _190
REMARK   74  A    between atoms: _193  and  _195
REMARK   75  A    between atoms: _195  and  _196
REMARK   76  A    between atoms: _195  and  _198
REMARK   77  A    between atoms: _198  and  _199
REMARK   78  A    between atoms: _204  and  _205
REMARK   79  A    between atoms: _207  and  _209
REMARK   80  A    between atoms: _209  and  _210
REMARK   81  A    between atoms: _209  and  _212
REMARK   82  A    between atoms: _212  and  _213
REMARK   83  A    between atoms: _218  and  _220
REMARK   84  A    between atoms: _220  and  _221
REMARK   85  A    between atoms: _220  and  _223
REMARK   86  A    between atoms: _223  and  _224
REMARK   87  A    between atoms: _229  and  _231
REMARK   88  A    between atoms: _231  and  _232
REMARK   89  A    between atoms: _231  and  _234
REMARK   90  A    between atoms: _234  and  _235
REMARK   91  A    between atoms: _235  and  _236
REMARK   92  A    between atoms: _238  and  _240
REMARK   93  A    between atoms: _240  and  _241
REMARK   94  A    between atoms: _240  and  _243
REMARK   95  A    between atoms: _243  and  _244
REMARK   96  A    between atoms: _249  and  _250
REMARK   97  A    between atoms: _252  and  _254
REMARK   98  A    between atoms: _254  and  _255
REMARK   99  A    between atoms: _254  and  _257
REMARK  100  A    between atoms: _257  and  _258
REMARK  101  A    between atoms: _261  and  _263
REMARK  102  A    between atoms: _263  and  _264
REMARK  103  A    between atoms: _263  and  _266
REMARK  104  A    between atoms: _266  and  _267
REMARK  105  A    between atoms: _267  and  _484
REMARK  106  A    between atoms: _268  and  _270
REMARK  107  A    between atoms: _270  and  _271
REMARK  108  A    between atoms: _270  and  _273
REMARK  109  A    between atoms: _273  and  _274
REMARK  110  A    between atoms: _277  and  _279
REMARK  111  A    between atoms: _279  and  _280
REMARK  112  A    between atoms: _279  and  _282
REMARK  113  A    between atoms: _282  and  _283
REMARK  114  A    between atoms: _288  and  _289
REMARK  115  A    between atoms: _291  and  _293
REMARK  116  A    between atoms: _293  and  _294
REMARK  117  A    between atoms: _293  and  _296
REMARK  118  A    between atoms: _296  and  _297
REMARK  119  A    between atoms: _302  and  _303
REMARK  120  A    between atoms: _305  and  _307
REMARK  121  A    between atoms: _307  and  _308
REMARK  122  A    between atoms: _307  and  _310
REMARK  123  A    between atoms: _310  and  _311
REMARK  124  A    between atoms: _311  and  _312
REMARK  125  A    between atoms: _315  and  _317
REMARK  126  A    between atoms: _317  and  _318
REMARK  127  A    between atoms: _317  and  _320
REMARK  128  A    between atoms: _320  and  _321
REMARK  129  A    between atoms: _326  and  _327
REMARK  130  A    between atoms: _329  and  _331
REMARK  131  A    between atoms: _331  and  _332
REMARK  132  A    between atoms: _331  and  _334
REMARK  133  A    between atoms: _334  and  _335
REMARK  134  A    between atoms: _340  and  _342
REMARK  135  A    between atoms: _342  and  _343
REMARK  136  A    between atoms: _342  and  _345
REMARK  137  A    between atoms: _345  and  _346
REMARK  138  A    between atoms: _349  and  _351
REMARK  139  A    between atoms: _351  and  _352
REMARK  140  A    between atoms: _351  and  _354
REMARK  141  A    between atoms: _354  and  _355
REMARK  142  A    between atoms: _360  and  _362
REMARK  143  A    between atoms: _362  and  _363
REMARK  144  A    between atoms: _362  and  _365
REMARK  145  A    between atoms: _365  and  _366
REMARK  146  A    between atoms: _376  and  _378
REMARK  147  A    between atoms: _378  and  _379
REMARK  148  A    between atoms: _378  and  _381
REMARK  149  A    between atoms: _381  and  _382
REMARK  150  A    between atoms: _388  and  _390
REMARK  151  A    between atoms: _390  and  _391
REMARK  152  A    between atoms: _390  and  _393
REMARK  153  A    between atoms: _393  and  _394
REMARK  154  A    between atoms: _397  and  _399
REMARK  155  A    between atoms: _399  and  _400
REMARK  156  A    between atoms: _399  and  _402
REMARK  157  A    between atoms: _402  and  _403
REMARK  158  A    between atoms: _406  and  _408
REMARK  159  A    between atoms: _408  and  _409
REMARK  160  A    between atoms: _408  and  _411
REMARK  161  A    between atoms: _411  and  _412
REMARK  162  A    between atoms: _412  and  _413
REMARK  163  A    between atoms: _413  and  _414
REMARK  164  A    between atoms: _423  and  _425
REMARK  165  A    between atoms: _425  and  _426
REMARK  166  A    between atoms: _425  and  _428
REMARK  167  A    between atoms: _428  and  _429
REMARK  168  A    between atoms: _434  and  _436
REMARK  169  A    between atoms: _436  and  _437
REMARK  170  A    between atoms: _436  and  _439
REMARK  171  A    between atoms: _439  and  _440
REMARK  172  A    between atoms: _441  and  _442
REMARK  173  A    between atoms: _451  and  _453
REMARK  174  A    between atoms: _453  and  _454
REMARK  175  A    between atoms: _457  and  _459
REMARK  176  A    between atoms: _459  and  _460
REMARK  177  A    between atoms: _462  and  _464
REMARK  178  A    between atoms: _464  and  _465
REMARK  179  A    between atoms: _464  and  _467
REMARK  180  A    between atoms: _467  and  _468
REMARK  181  A    between atoms: _478  and  _480
REMARK  182  A    between atoms: _480  and  _481
REMARK  183  A    between atoms: _480  and  _483
REMARK  184  A    between atoms: _483  and  _484
REMARK  185  A    between atoms: _485  and  _487
REMARK  186  A    between atoms: _487  and  _488
REMARK  187  A    between atoms: _491  and  _493
REMARK  188  A    between atoms: _493  and  _494
REMARK  189  A    between atoms: _493  and  _496
REMARK  190  A    between atoms: _496  and  _497
REMARK  191  A    between atoms: _500  and  _502
REMARK  192  A    between atoms: _502  and  _503
REMARK  193  A    between atoms: _502  and  _505
REMARK  194  A    between atoms: _505  and  _506
REMARK  195  A    between atoms: _511  and  _512
REMARK  196  A    between atoms: _514  and  _516
REMARK  197  A    between atoms: _516  and  _517
REMARK  198  A    between atoms: _516  and  _519
REMARK  199  A    between atoms: _519  and  _520
REMARK  200  A    between atoms: _522  and  _524
REMARK  201  A    between atoms: _524  and  _525
REMARK  202  A    between atoms: _524  and  _527
REMARK  203  A    between atoms: _527  and  _528
REMARK  204  A    between atoms: _534  and  _536
REMARK  205  A    between atoms: _536  and  _537
REMARK  206  A    between atoms: _536  and  _539
REMARK  207  A    between atoms: _539  and  _540
REMARK  208  A    between atoms: _543  and  _545
REMARK  209  A    between atoms: _545  and  _546
REMARK  210  A    between atoms: _545  and  _548
REMARK  211  A    between atoms: _548  and  _549
REMARK  212  A    between atoms: _551  and  _553
REMARK  213  A    between atoms: _553  and  _554
REMARK  214  A    between atoms: _553  and  _556
REMARK  215  A    between atoms: _556  and  _557
REMARK  216  A    between atoms: _562  and  _564
REMARK  217  A    between atoms: _564  and  _565
REMARK  218  A    between atoms: _564  and  _567
REMARK  219  A    between atoms: _567  and  _568
REMARK  220  A    between atoms: _571  and  _573
REMARK  221  A    between atoms: _573  and  _574
REMARK  222  A    between atoms: _573  and  _576
REMARK  223  A    between atoms: _576  and  _577
REMARK  224  A    between atoms: _582  and  _583
REMARK  225  A    between atoms: _585  and  _587
REMARK  226  A    between atoms: _587  and  _588
REMARK  227  A    between atoms: _587  and  _590
REMARK  228  A    between atoms: _590  and  _591
REMARK  229  A    between atoms: _596  and  _597
REMARK  230  A    between atoms: _599  and  _601
REMARK  231  A    between atoms: _601  and  _602
REMARK  232  A    between atoms: _601  and  _604
REMARK  233  A    between atoms: _607  and  _609
REMARK  234  A    between atoms: _609  and  _610
REMARK  235  A    between atoms: _609  and  _612
REMARK  236  A    between atoms: _612  and  _613
REMARK  237  A    between atoms: _618  and  _620
REMARK  238  A    between atoms: _620  and  _621
REMARK  239  A    between atoms: _624  and  _626
REMARK  240  A    between atoms: _626  and  _627
REMARK  241  A    between atoms: _626  and  _629
REMARK  242  A    between atoms: _629  and  _630
REMARK  243  A    between atoms: _630  and  _631
REMARK  244  A    between atoms: _631  and  _632
REMARK  245  A    between atoms: _641  and  _643
REMARK  246  A    between atoms: _643  and  _644
REMARK  247  A    between atoms: _643  and  _646
REMARK  248  A    between atoms: _646  and  _647
REMARK  249  A    between atoms: _650  and  _652
REMARK  250  A    between atoms: _652  and  _653
REMARK  251  A    between atoms: _652  and  _655
REMARK  252  A    between atoms: _655  and  _656
REMARK  253  A    between atoms: _659  and  _661
REMARK  254  A    between atoms: _661  and  _662
REMARK  255  A    between atoms: _661  and  _664
REMARK  256  A    between atoms: _664  and  _665
REMARK                            x       y       z     vdW  Elec       q    Type
REMARK                         _______ _______ _______ _____ _____    ______ ____
ROOT
ATOM      1  O   HOH     1      -2.126  17.199   7.573  0.00  0.00    +0.000 OA
ENDROOT
TORSDOF 0
REMARK  Name = ../refined-set-2016/1b6h/1b6h_pocket.pdb
REMARK  256 active torsions:
REMARK  status: ('A' for Active; 'I' for Inactive)
REMARK    1  A    between atoms: _1  and  _3
REMARK    2  A    between atoms: _3  and  _4
REMARK    3  A    between atoms: _3  and  _6
REMARK    4  A    between atoms: _6  and  _7
REMARK    5  A    between atoms: _12  and  _14
REMARK    6  A    between atoms: _14  and  _15
REMARK    7  A    between atoms: _17  and  _19
REMARK    8  A    between atoms: _19  and  _20
REMARK    9  A    between atoms: _19  and  _22
REMARK   10  A    between atoms: _22  and  _23
REMARK   11  A    between atoms: _23  and  _24
REMARK   12  A    between atoms: _29  and  _31
REMARK   13  A    between atoms: _31  and  _32
REMARK   14  A    between atoms: _31  and  _34
REMARK   15  A    between atoms: _34  and  _35
REMARK   16  A    between atoms: _38  and  _40
REMARK   17  A    between atoms: _40  and  _41
REMARK   18  A    between atoms: _40  and  _43
REMARK   19  A    between atoms: _43  and  _44
REMARK   20  A    between atoms: _44  and  _45
REMARK   21  A    between atoms: _48  and  _50
REMARK   22  A    between atoms: _50  and  _51
REMARK   23  A    between atoms: _53  and  _55
REMARK   24  A    between atoms: _55  and  _56
REMARK   25  A    between atoms: _55  and  _58
REMARK   26  A    between atoms: _62  and  _63
REMARK   27  A    between atoms: _68  and  _70
REMARK   28  A    between atoms: _70  and  _71
REMARK   29  A    between atoms: _70  and  _73
REMARK   30  A    between atoms: _73  and  _74
REMARK   31  A    between atoms: _74  and  _75
REMARK   32  A    between atoms: _78  and  _80
REMARK   33  A    between atoms: _80  and  _81
REMARK   34  A    between atoms: _80  and  _83
REMARK   35  A    between atoms: _83  and  _84
REMARK   36  A    between atoms: _86  and  _88
REMARK   37  A    between atoms: _88  and  _89
REMARK   38  A    between atoms: _88  and  _91
REMARK   39  A    between atoms: _91  and  _92
REMARK   40  A    between atoms: _97  and  _99
REMARK   41  A    between atoms: _99  and  _100
REMARK   42  A    between atoms: _99  and  _102
REMARK   43  A    between atoms: _102  and  _103
REMARK   44  A    between atoms: _103  and  _104
REMARK   45  A    between atoms: _104  and  _105
REMARK   46  A    between atoms: _115  and  _116
REMARK   47  A    between atoms: _121  and  _123
REMARK   48  A    between atoms: _123  and  _124
REMARK   49  A    between atoms: _123  and  _126
REMARK   50  A    between atoms: _126  and  _127
REMARK   51  A    between atoms: _132  and  _133
REMARK   52  A    between atoms: _135  and  _137
REMARK   53  A    between atoms: _137  and  _138
REMARK   54  A    between atoms: _137  and  _140
REMARK   55  A    between atoms: _140  and  _141
REMARK   56  A    between atoms: _146  and  _147
REMARK   57  A    between atoms: _149  and  _151
REMARK   58  A    between atoms: _151  and  _152
REMARK   59  A    between atoms: _151  and  _154
REMARK   60  A    between atoms: _157  and  _159
REMARK   61  A    between atoms: _159  and  _160
REMARK   62  A    between atoms: _159  and  _162
REMARK   63  A    between atoms: _162  and  _163
REMARK   64  A    between atoms: _169  and  _170
REMARK   65  A    between atoms: _175  and  _177
REMARK   66  A    between atoms: _177  and  _178
REMARK   67  A    between atoms: _177  and  _180
REMARK   68  A    between atoms: _180  and  _181
REMARK   69  A    between atoms: _183  and  _185
REMARK   70  A    between atoms: _185  and  _186
REMARK   71  A    between atoms: _185  and  _188
REMARK   72  A    between atoms: _188  and  _189
REMARK   73  A    between atoms: _189  and  _190
REMARK   74  A    between atoms: _193  and  _195
REMARK   75  A    between atoms: _195  and  _196
REMARK   76  A    between atoms: _195  and  _198
REMARK   77  A    between atoms: _198  and  _199
REMARK   78  A    between atoms: _204  and  _205
REMARK   79  A    between atoms: _207  and  _209
REMARK   80  A    between atoms: _209  and  _210
REMARK   81  A    between atoms: _209  and  _212
REMARK   82  A    between atoms: _212  and  _213
REMARK   83  A    between atoms: _218  and  _220
REMARK   84  A    between atoms: _220  and  _221
REMARK   85  A    between atoms: _220  and  _223
REMARK   86  A    between atoms: _223  and  _224
REMARK   87  A    between atoms: _229  and  _231
REMARK   88  A    between atoms: _231  and  _232
REMARK   89  A    between atoms: _231  and  _234
REMARK   90  A    between atoms: _234  and  _235
REMARK   91  A    between atoms: _235  and  _236
REMARK   92  A    between atoms: _238  and  _240
REMARK   93  A    between atoms: _240  and  _241
REMARK   94  A    between atoms: _240  and  _243
REMARK   95  A    between atoms: _243  and  _244
REMARK   96  A    between atoms: _249  and  _250
REMARK   97  A    between atoms: _252  and  _254
REMARK   98  A    between atoms: _254  and  _255
REMARK   99  A    between atoms: _254  and  _257
REMARK  100  A    between atoms: _257  and  _258
REMARK  101  A    between atoms: _261  and  _263
REMARK  102  A    between atoms: _263  and  _264
REMARK  103  A    between atoms: _263  and  _266
REMARK  104  A    between atoms: _266  and  _267
REMARK  105  A    between atoms: _267  and  _484
REMARK  106  A    between atoms: _268  and  _270
REMARK  107  A    between atoms: _270  and  _271
REMARK  108  A    between atoms: _270  and  _273
REMARK  109  A    between atoms: _273  and  _274
REMARK  110  A    between atoms: _277  and  _279
REMARK  111  A    between atoms: _279  and  _280
REMARK  112  A    between atoms: _279  and  _282
REMARK  113  A    between atoms: _282  and  _283
REMARK  114  A    between atoms: _288  and  _289
REMARK  115  A    between atoms: _291  and  _293
REMARK  116  A    between atoms: _293  and  _294
REMARK  117  A    between atoms: _293  and  _296
REMARK  118  A    between atoms: _296  and  _297
REMARK  119  A    between atoms: _302  and  _303
REMARK  120  A    between atoms: _305  and  _307
REMARK  121  A    between atoms: _307  and  _308
REMARK  122  A    between atoms: _307  and  _310
REMARK  123  A    between atoms: _310  and  _311
REMARK  124  A    between atoms: _311  and  _312
REMARK  125  A    between atoms: _315  and  _317
REMARK  126  A    between atoms: _317  and  _318
REMARK  127  A    between atoms: _317  and  _320
REMARK  128  A    between atoms: _320  and  _321
REMARK  129  A    between atoms: _326  and  _327
REMARK  130  A    between atoms: _329  and  _331
REMARK  131  A    between atoms: _331  and  _332
REMARK  132  A    between atoms: _331  and  _334
REMARK  133  A    between atoms: _334  and  _335
REMARK  134  A    between atoms: _340  and  _342
REMARK  135  A    between atoms: _342  and  _343
REMARK  136  A    between atoms: _342  and  _345
REMARK  137  A    between atoms: _345  and  _346
REMARK  138  A    between atoms: _349  and  _351
REMARK  139  A    between atoms: _351  and  _352
REMARK  140  A    between atoms: _351  and  _354
REMARK  141  A    between atoms: _354  and  _355
REMARK  142  A    between atoms: _360  and  _362
REMARK  143  A    between atoms: _362  and  _363
REMARK  144  A    between atoms: _362  and  _365
REMARK  145  A    between atoms: _365  and  _366
REMARK  146  A    between atoms: _376  and  _378
REMARK  147  A    between atoms: _378  and  _379
REMARK  148  A    between atoms: _378  and  _381
REMARK  149  A    between atoms: _381  and  _382
REMARK  150  A    between atoms: _388  and  _390
REMARK  151  A    between atoms: _390  and  _391
REMARK  152  A    between atoms: _390  and  _393
REMARK  153  A    between atoms: _393  and  _394
REMARK  154  A    between atoms: _397  and  _399
REMARK  155  A    between atoms: _399  and  _400
REMARK  156  A    between atoms: _399  and  _402
REMARK  157  A    between atoms: _402  and  _403
REMARK  158  A    between atoms: _406  and  _408
REMARK  159  A    between atoms: _408  and  _409
REMARK  160  A    between atoms: _408  and  _411
REMARK  161  A    between atoms: _411  and  _412
REMARK  162  A    between atoms: _412  and  _413
REMARK  163  A    between atoms: _413  and  _414
REMARK  164  A    between atoms: _423  and  _425
REMARK  165  A    between atoms: _425  and  _426
REMARK  166  A    between atoms: _425  and  _428
REMARK  167  A    between atoms: _428  and  _429
REMARK  168  A    between atoms: _434  and  _436
REMARK  169  A    between atoms: _436  and  _437
REMARK  170  A    between atoms: _436  and  _439
REMARK  171  A    between atoms: _439  and  _440
REMARK  172  A    between atoms: _441  and  _442
REMARK  173  A    between atoms: _451  and  _453
REMARK  174  A    between atoms: _453  and  _454
REMARK  175  A    between atoms: _457  and  _459
REMARK  176  A    between atoms: _459  and  _460
REMARK  177  A    between atoms: _462  and  _464
REMARK  178  A    between atoms: _464  and  _465
REMARK  179  A    between atoms: _464  and  _467
REMARK  180  A    between atoms: _467  and  _468
REMARK  181  A    between atoms: _478  and  _480
REMARK  182  A    between atoms: _480  and  _481
REMARK  183  A    between atoms: _480  and  _483
REMARK  184  A    between atoms: _483  and  _484
REMARK  185  A    between atoms: _485  and  _487
REMARK  186  A    between atoms: _487  and  _488
REMARK  187  A    between atoms: _491  and  _493
REMARK  188  A    between atoms: _493  and  _494
REMARK  189  A    between atoms: _493  and  _496
REMARK  190  A    between atoms: _496  and  _497
REMARK  191  A    between atoms: _500  and  _502
REMARK  192  A    between atoms: _502  and  _503
REMARK  193  A    between atoms: _502  and  _505
REMARK  194  A    between atoms: _505  and  _506
REMARK  195  A    between atoms: _511  and  _512
REMARK  196  A    between atoms: _514  and  _516
REMARK  197  A    between atoms: _516  and  _517
REMARK  198  A    between atoms: _516  and  _519
REMARK  199  A    between atoms: _519  and  _520
REMARK  200  A    between atoms: _522  and  _524
REMARK  201  A    between atoms: _524  and  _525
REMARK  202  A    between atoms: _524  and  _527
REMARK  203  A    between atoms: _527  and  _528
REMARK  204  A    between atoms: _534  and  _536
REMARK  205  A    between atoms: _536  and  _537
REMARK  206  A    between atoms: _536  and  _539
REMARK  207  A    between atoms: _539  and  _540
REMARK  208  A    between atoms: _543  and  _545
REMARK  209  A    between atoms: _545  and  _546
REMARK  210  A    between atoms: _545  and  _548
REMARK  211  A    between atoms: _548  and  _549
REMARK  212  A    between atoms: _551  and  _553
REMARK  213  A    between atoms: _553  and  _554
REMARK  214  A    between atoms: _553  and  _556
REMARK  215  A    between atoms: _556  and  _557
REMARK  216  A    between atoms: _562  and  _564
REMARK  217  A    between atoms: _564  and  _565
REMARK  218  A    between atoms: _564  and  _567
REMARK  219  A    between atoms: _567  and  _568
REMARK  220  A    between atoms: _571  and  _573
REMARK  221  A    between atoms: _573  and  _574
REMARK  222  A    between atoms: _573  and  _576
REMARK  223  A    between atoms: _576  and  _577
REMARK  224  A    between atoms: _582  and  _583
REMARK  225  A    between atoms: _585  and  _587
REMARK  226  A    between atoms: _587  and  _588
REMARK  227  A    between atoms: _587  and  _590
REMARK  228  A    between atoms: _590  and  _591
REMARK  229  A    between atoms: _596  and  _597
REMARK  230  A    between atoms: _599  and  _601
REMARK  231  A    between atoms: _601  and  _602
REMARK  232  A    between atoms: _601  and  _604
REMARK  233  A    between atoms: _607  and  _609
REMARK  234  A    between atoms: _609  and  _610
REMARK  235  A    between atoms: _609  and  _612
REMARK  236  A    between atoms: _612  and  _613
REMARK  237  A    between atoms: _618  and  _620
REMARK  238  A    between atoms: _620  and  _621
REMARK  239  A    between atoms: _624  and  _626
REMARK  240  A    between atoms: _626  and  _627
REMARK  241  A    between atoms: _626  and  _629
REMARK  242  A    between atoms: _629  and  _630
REMARK  243  A    between atoms: _630  and  _631
REMARK  244  A    between atoms: _631  and  _632
REMARK  245  A    between atoms: _641  and  _643
REMARK  246  A    between atoms: _643  and  _644
REMARK  247  A    between atoms: _643  and  _646
REMARK  248  A    between atoms: _646  and  _647
REMARK  249  A    between atoms: _650  and  _652
REMARK  250  A    between atoms: _652  and  _653
REMARK  251  A    between atoms: _652  and  _655
REMARK  252  A    between atoms: _655  and  _656
REMARK  253  A    between atoms: _659  and  _661
REMARK  254  A    between atoms: _661  and  _662
REMARK  255  A    between atoms: _661  and  _664
REMARK  256  A    between atoms: _664  and  _665
REMARK                            x       y       z     vdW  Elec       q    Type
REMARK                         _______ _______ _______ _____ _____    ______ ____
ROOT
ATOM      1  O   HOH     1       1.691  14.695   8.402  0.00  0.00    +0.000 OA
ENDROOT
TORSDOF 0
REMARK  Name = ../refined-set-2016/1b6h/1b6h_pocket.pdb
REMARK  256 active torsions:
REMARK  status: ('A' for Active; 'I' for Inactive)
REMARK    1  A    between atoms: _1  and  _3
REMARK    2  A    between atoms: _3  and  _4
REMARK    3  A    between atoms: _3  and  _6
REMARK    4  A    between atoms: _6  and  _7
REMARK    5  A    between atoms: _12  and  _14
REMARK    6  A    between atoms: _14  and  _15
REMARK    7  A    between atoms: _17  and  _19
REMARK    8  A    between atoms: _19  and  _20
REMARK    9  A    between atoms: _19  and  _22
REMARK   10  A    between atoms: _22  and  _23
REMARK   11  A    between atoms: _23  and  _24
REMARK   12  A    between atoms: _29  and  _31
REMARK   13  A    between atoms: _31  and  _32
REMARK   14  A    between atoms: _31  and  _34
REMARK   15  A    between atoms: _34  and  _35
REMARK   16  A    between atoms: _38  and  _40
REMARK   17  A    between atoms: _40  and  _41
REMARK   18  A    between atoms: _40  and  _43
REMARK   19  A    between atoms: _43  and  _44
REMARK   20  A    between atoms: _44  and  _45
REMARK   21  A    between atoms: _48  and  _50
REMARK   22  A    between atoms: _50  and  _51
REMARK   23  A    between atoms: _53  and  _55
REMARK   24  A    between atoms: _55  and  _56
REMARK   25  A    between atoms: _55  and  _58
REMARK   26  A    between atoms: _62  and  _63
REMARK   27  A    between atoms: _68  and  _70
REMARK   28  A    between atoms: _70  and  _71
REMARK   29  A    between atoms: _70  and  _73
REMARK   30  A    between atoms: _73  and  _74
REMARK   31  A    between atoms: _74  and  _75
REMARK   32  A    between atoms: _78  and  _80
REMARK   33  A    between atoms: _80  and  _81
REMARK   34  A    between atoms: _80  and  _83
REMARK   35  A    between atoms: _83  and  _84
REMARK   36  A    between atoms: _86  and  _88
REMARK   37  A    between atoms: _88  and  _89
REMARK   38  A    between atoms: _88  and  _91
REMARK   39  A    between atoms: _91  and  _92
REMARK   40  A    between atoms: _97  and  _99
REMARK   41  A    between atoms: _99  and  _100
REMARK   42  A    between atoms: _99  and  _102
REMARK   43  A    between atoms: _102  and  _103
REMARK   44  A    between atoms: _103  and  _104
REMARK   45  A    between atoms: _104  and  _105
REMARK   46  A    between atoms: _115  and  _116
REMARK   47  A    between atoms: _121  and  _123
REMARK   48  A    between atoms: _123  and  _124
REMARK   49  A    between atoms: _123  and  _126
REMARK   50  A    between atoms: _126  and  _127
REMARK   51  A    between atoms: _132  and  _133
REMARK   52  A    between atoms: _135  and  _137
REMARK   53  A    between atoms: _137  and  _138
REMARK   54  A    between atoms: _137  and  _140
REMARK   55  A    between atoms: _140  and  _141
REMARK   56  A    between atoms: _146  and  _147
REMARK   57  A    between atoms: _149  and  _151
REMARK   58  A    between atoms: _151  and  _152
REMARK   59  A    between atoms: _151  and  _154
REMARK   60  A    between atoms: _157  and  _159
REMARK   61  A    between atoms: _159  and  _160
REMARK   62  A    between atoms: _159  and  _162
REMARK   63  A    between atoms: _162  and  _163
REMARK   64  A    between atoms: _169  and  _170
REMARK   65  A    between atoms: _175  and  _177
REMARK   66  A    between atoms: _177  and  _178
REMARK   67  A    between atoms: _177  and  _180
REMARK   68  A    between atoms: _180  and  _181
REMARK   69  A    between atoms: _183  and  _185
REMARK   70  A    between atoms: _185  and  _186
REMARK   71  A    between atoms: _185  and  _188
REMARK   72  A    between atoms: _188  and  _189
REMARK   73  A    between atoms: _189  and  _190
REMARK   74  A    between atoms: _193  and  _195
REMARK   75  A    between atoms: _195  and  _196
REMARK   76  A    between atoms: _195  and  _198
REMARK   77  A    between atoms: _198  and  _199
REMARK   78  A    between atoms: _204  and  _205
REMARK   79  A    between atoms: _207  and  _209
REMARK   80  A    between atoms: _209  and  _210
REMARK   81  A    between atoms: _209  and  _212
REMARK   82  A    between atoms: _212  and  _213
REMARK   83  A    between atoms: _218  and  _220
REMARK   84  A    between atoms: _220  and  _221
REMARK   85  A    between atoms: _220  and  _223
REMARK   86  A    between atoms: _223  and  _224
REMARK   87  A    between atoms: _229  and  _231
REMARK   88  A    between atoms: _231  and  _232
REMARK   89  A    between atoms: _231  and  _234
REMARK   90  A    between atoms: _234  and  _235
REMARK   91  A    between atoms: _235  and  _236
REMARK   92  A    between atoms: _238  and  _240
REMARK   93  A    between atoms: _240  and  _241
REMARK   94  A    between atoms: _240  and  _243
REMARK   95  A    between atoms: _243  and  _244
REMARK   96  A    between atoms: _249  and  _250
REMARK   97  A    between atoms: _252  and  _254
REMARK   98  A    between atoms: _254  and  _255
REMARK   99  A    between atoms: _254  and  _257
REMARK  100  A    between atoms: _257  and  _258
REMARK  101  A    between atoms: _261  and  _263
REMARK  102  A    between atoms: _263  and  _264
REMARK  103  A    between atoms: _263  and  _266
REMARK  104  A    between atoms: _266  and  _267
REMARK  105  A    between atoms: _267  and  _484
REMARK  106  A    between atoms: _268  and  _270
REMARK  107  A    between atoms: _270  and  _271
REMARK  108  A    between atoms: _270  and  _273
REMARK  109  A    between atoms: _273  and  _274
REMARK  110  A    between atoms: _277  and  _279
REMARK  111  A    between atoms: _279  and  _280
REMARK  112  A    between atoms: _279  and  _282
REMARK  113  A    between atoms: _282  and  _283
REMARK  114  A    between atoms: _288  and  _289
REMARK  115  A    between atoms: _291  and  _293
REMARK  116  A    between atoms: _293  and  _294
REMARK  117  A    between atoms: _293  and  _296
REMARK  118  A    between atoms: _296  and  _297
REMARK  119  A    between atoms: _302  and  _303
REMARK  120  A    between atoms: _305  and  _307
REMARK  121  A    between atoms: _307  and  _308
REMARK  122  A    between atoms: _307  and  _310
REMARK  123  A    between atoms: _310  and  _311
REMARK  124  A    between atoms: _311  and  _312
REMARK  125  A    between atoms: _315  and  _317
REMARK  126  A    between atoms: _317  and  _318
REMARK  127  A    between atoms: _317  and  _320
REMARK  128  A    between atoms: _320  and  _321
REMARK  129  A    between atoms: _326  and  _327
REMARK  130  A    between atoms: _329  and  _331
REMARK  131  A    between atoms: _331  and  _332
REMARK  132  A    between atoms: _331  and  _334
REMARK  133  A    between atoms: _334  and  _335
REMARK  134  A    between atoms: _340  and  _342
REMARK  135  A    between atoms: _342  and  _343
REMARK  136  A    between atoms: _342  and  _345
REMARK  137  A    between atoms: _345  and  _346
REMARK  138  A    between atoms: _349  and  _351
REMARK  139  A    between atoms: _351  and  _352
REMARK  140  A    between atoms: _351  and  _354
REMARK  141  A    between atoms: _354  and  _355
REMARK  142  A    between atoms: _360  and  _362
REMARK  143  A    between atoms: _362  and  _363
REMARK  144  A    between atoms: _362  and  _365
REMARK  145  A    between atoms: _365  and  _366
REMARK  146  A    between atoms: _376  and  _378
REMARK  147  A    between atoms: _378  and  _379
REMARK  148  A    between atoms: _378  and  _381
REMARK  149  A    between atoms: _381  and  _382
REMARK  150  A    between atoms: _388  and  _390
REMARK  151  A    between atoms: _390  and  _391
REMARK  152  A    between atoms: _390  and  _393
REMARK  153  A    between atoms: _393  and  _394
REMARK  154  A    between atoms: _397  and  _399
REMARK  155  A    between atoms: _399  and  _400
REMARK  156  A    between atoms: _399  and  _402
REMARK  157  A    between atoms: _402  and  _403
REMARK  158  A    between atoms: _406  and  _408
REMARK  159  A    between atoms: _408  and  _409
REMARK  160  A    between atoms: _408  and  _411
REMARK  161  A    between atoms: _411  and  _412
REMARK  162  A    between atoms: _412  and  _413
REMARK  163  A    between atoms: _413  and  _414
REMARK  164  A    between atoms: _423  and  _425
REMARK  165  A    between atoms: _425  and  _426
REMARK  166  A    between atoms: _425  and  _428
REMARK  167  A    between atoms: _428  and  _429
REMARK  168  A    between atoms: _434  and  _436
REMARK  169  A    between atoms: _436  and  _437
REMARK  170  A    between atoms: _436  and  _439
REMARK  171  A    between atoms: _439  and  _440
REMARK  172  A    between atoms: _441  and  _442
REMARK  173  A    between atoms: _451  and  _453
REMARK  174  A    between atoms: _453  and  _454
REMARK  175  A    between atoms: _457  and  _459
REMARK  176  A    between atoms: _459  and  _460
REMARK  177  A    between atoms: _462  and  _464
REMARK  178  A    between atoms: _464  and  _465
REMARK  179  A    between atoms: _464  and  _467
REMARK  180  A    between atoms: _467  and  _468
REMARK  181  A    between atoms: _478  and  _480
REMARK  182  A    between atoms: _480  and  _481
REMARK  183  A    between atoms: _480  and  _483
REMARK  184  A    between atoms: _483  and  _484
REMARK  185  A    between atoms: _485  and  _487
REMARK  186  A    between atoms: _487  and  _488
REMARK  187  A    between atoms: _491  and  _493
REMARK  188  A    between atoms: _493  and  _494
REMARK  189  A    between atoms: _493  and  _496
REMARK  190  A    between atoms: _496  and  _497
REMARK  191  A    between atoms: _500  and  _502
REMARK  192  A    between atoms: _502  and  _503
REMARK  193  A    between atoms: _502  and  _505
REMARK  194  A    between atoms: _505  and  _506
REMARK  195  A    between atoms: _511  and  _512
REMARK  196  A    between atoms: _514  and  _516
REMARK  197  A    between atoms: _516  and  _517
REMARK  198  A    between atoms: _516  and  _519
REMARK  199  A    between atoms: _519  and  _520
REMARK  200  A    between atoms: _522  and  _524
REMARK  201  A    between atoms: _524  and  _525
REMARK  202  A    between atoms: _524  and  _527
REMARK  203  A    between atoms: _527  and  _528
REMARK  204  A    between atoms: _534  and  _536
REMARK  205  A    between atoms: _536  and  _537
REMARK  206  A    between atoms: _536  and  _539
REMARK  207  A    between atoms: _539  and  _540
REMARK  208  A    between atoms: _543  and  _545
REMARK  209  A    between atoms: _545  and  _546
REMARK  210  A    between atoms: _545  and  _548
REMARK  211  A    between atoms: _548  and  _549
REMARK  212  A    between atoms: _551  and  _553
REMARK  213  A    between atoms: _553  and  _554
REMARK  214  A    between atoms: _553  and  _556
REMARK  215  A    between atoms: _556  and  _557
REMARK  216  A    between atoms: _562  and  _564
REMARK  217  A    between atoms: _564  and  _565
REMARK  218  A    between atoms: _564  and  _567
REMARK  219  A    between atoms: _567  and  _568
REMARK  220  A    between atoms: _571  and  _573
REMARK  221  A    between atoms: _573  and  _574
REMARK  222  A    between atoms: _573  and  _576
REMARK  223  A    between atoms: _576  and  _577
REMARK  224  A    between atoms: _582  and  _583
REMARK  225  A    between atoms: _585  and  _587
REMARK  226  A    between atoms: _587  and  _588
REMARK  227  A    between atoms: _587  and  _590
REMARK  228  A    between atoms: _590  and  _591
REMARK  229  A    between atoms: _596  and  _597
REMARK  230  A    between atoms: _599  and  _601
REMARK  231  A    between atoms: _601  and  _602
REMARK  232  A    between atoms: _601  and  _604
REMARK  233  A    between atoms: _607  and  _609
REMARK  234  A    between atoms: _609  and  _610
REMARK  235  A    between atoms: _609  and  _612
REMARK  236  A    between atoms: _612  and  _613
REMARK  237  A    between atoms: _618  and  _620
REMARK  238  A    between atoms: _620  and  _621
REMARK  239  A    between atoms: _624  and  _626
REMARK  240  A    between atoms: _626  and  _627
REMARK  241  A    between atoms: _626  and  _629
REMARK  242  A    between atoms: _629  and  _630
REMARK  243  A    between atoms: _630  and  _631
REMARK  244  A    between atoms: _631  and  _632
REMARK  245  A    between atoms: _641  and  _643
REMARK  246  A    between atoms: _643  and  _644
REMARK  247  A    between atoms: _643  and  _646
REMARK  248  A    between atoms: _646  and  _647
REMARK  249  A    between atoms: _650  and  _652
REMARK  250  A    between atoms: _652  and  _653
REMARK  251  A    between atoms: _652  and  _655
REMARK  252  A    between atoms: _655  and  _656
REMARK  253  A    between atoms: _659  and  _661
REMARK  254  A    between atoms: _661  and  _662
REMARK  255  A    between atoms: _661  and  _664
REMARK  256  A    between atoms: _664  and  _665
REMARK                            x       y       z     vdW  Elec       q    Type
REMARK                         _______ _______ _______ _____ _____    ______ ____
ROOT
ATOM      1  O   HOH     1      -4.199  19.750  16.104  0.00  0.00    +0.000 OA
ENDROOT
TORSDOF 0
REMARK  Name = ../refined-set-2016/1b6h/1b6h_pocket.pdb
REMARK  256 active torsions:
REMARK  status: ('A' for Active; 'I' for Inactive)
REMARK    1  A    between atoms: _1  and  _3
REMARK    2  A    between atoms: _3  and  _4
REMARK    3  A    between atoms: _3  and  _6
REMARK    4  A    between atoms: _6  and  _7
REMARK    5  A    between atoms: _12  and  _14
REMARK    6  A    between atoms: _14  and  _15
REMARK    7  A    between atoms: _17  and  _19
REMARK    8  A    between atoms: _19  and  _20
REMARK    9  A    between atoms: _19  and  _22
REMARK   10  A    between atoms: _22  and  _23
REMARK   11  A    between atoms: _23  and  _24
REMARK   12  A    between atoms: _29  and  _31
REMARK   13  A    between atoms: _31  and  _32
REMARK   14  A    between atoms: _31  and  _34
REMARK   15  A    between atoms: _34  and  _35
REMARK   16  A    between atoms: _38  and  _40
REMARK   17  A    between atoms: _40  and  _41
REMARK   18  A    between atoms: _40  and  _43
REMARK   19  A    between atoms: _43  and  _44
REMARK   20  A    between atoms: _44  and  _45
REMARK   21  A    between atoms: _48  and  _50
REMARK   22  A    between atoms: _50  and  _51
REMARK   23  A    between atoms: _53  and  _55
REMARK   24  A    between atoms: _55  and  _56
REMARK   25  A    between atoms: _55  and  _58
REMARK   26  A    between atoms: _62  and  _63
REMARK   27  A    between atoms: _68  and  _70
REMARK   28  A    between atoms: _70  and  _71
REMARK   29  A    between atoms: _70  and  _73
REMARK   30  A    between atoms: _73  and  _74
REMARK   31  A    between atoms: _74  and  _75
REMARK   32  A    between atoms: _78  and  _80
REMARK   33  A    between atoms: _80  and  _81
REMARK   34  A    between atoms: _80  and  _83
REMARK   35  A    between atoms: _83  and  _84
REMARK   36  A    between atoms: _86  and  _88
REMARK   37  A    between atoms: _88  and  _89
REMARK   38  A    between atoms: _88  and  _91
REMARK   39  A    between atoms: _91  and  _92
REMARK   40  A    between atoms: _97  and  _99
REMARK   41  A    between atoms: _99  and  _100
REMARK   42  A    between atoms: _99  and  _102
REMARK   43  A    between atoms: _102  and  _103
REMARK   44  A    between atoms: _103  and  _104
REMARK   45  A    between atoms: _104  and  _105
REMARK   46  A    between atoms: _115  and  _116
REMARK   47  A    between atoms: _121  and  _123
REMARK   48  A    between atoms: _123  and  _124
REMARK   49  A    between atoms: _123  and  _126
REMARK   50  A    between atoms: _126  and  _127
REMARK   51  A    between atoms: _132  and  _133
REMARK   52  A    between atoms: _135  and  _137
REMARK   53  A    between atoms: _137  and  _138
REMARK   54  A    between atoms: _137  and  _140
REMARK   55  A    between atoms: _140  and  _141
REMARK   56  A    between atoms: _146  and  _147
REMARK   57  A    between atoms: _149  and  _151
REMARK   58  A    between atoms: _151  and  _152
REMARK   59  A    between atoms: _151  and  _154
REMARK   60  A    between atoms: _157  and  _159
REMARK   61  A    between atoms: _159  and  _160
REMARK   62  A    between atoms: _159  and  _162
REMARK   63  A    between atoms: _162  and  _163
REMARK   64  A    between atoms: _169  and  _170
REMARK   65  A    between atoms: _175  and  _177
REMARK   66  A    between atoms: _177  and  _178
REMARK   67  A    between atoms: _177  and  _180
REMARK   68  A    between atoms: _180  and  _181
REMARK   69  A    between atoms: _183  and  _185
REMARK   70  A    between atoms: _185  and  _186
REMARK   71  A    between atoms: _185  and  _188
REMARK   72  A    between atoms: _188  and  _189
REMARK   73  A    between atoms: _189  and  _190
REMARK   74  A    between atoms: _193  and  _195
REMARK   75  A    between atoms: _195  and  _196
REMARK   76  A    between atoms: _195  and  _198
REMARK   77  A    between atoms: _198  and  _199
REMARK   78  A    between atoms: _204  and  _205
REMARK   79  A    between atoms: _207  and  _209
REMARK   80  A    between atoms: _209  and  _210
REMARK   81  A    between atoms: _209  and  _212
REMARK   82  A    between atoms: _212  and  _213
REMARK   83  A    between atoms: _218  and  _220
REMARK   84  A    between atoms: _220  and  _221
REMARK   85  A    between atoms: _220  and  _223
REMARK   86  A    between atoms: _223  and  _224
REMARK   87  A    between atoms: _229  and  _231
REMARK   88  A    between atoms: _231  and  _232
REMARK   89  A    between atoms: _231  and  _234
REMARK   90  A    between atoms: _234  and  _235
REMARK   91  A    between atoms: _235  and  _236
REMARK   92  A    between atoms: _238  and  _240
REMARK   93  A    between atoms: _240  and  _241
REMARK   94  A    between atoms: _240  and  _243
REMARK   95  A    between atoms: _243  and  _244
REMARK   96  A    between atoms: _249  and  _250
REMARK   97  A    between atoms: _252  and  _254
REMARK   98  A    between atoms: _254  and  _255
REMARK   99  A    between atoms: _254  and  _257
REMARK  100  A    between atoms: _257  and  _258
REMARK  101  A    between atoms: _261  and  _263
REMARK  102  A    between atoms: _263  and  _264
REMARK  103  A    between atoms: _263  and  _266
REMARK  104  A    between atoms: _266  and  _267
REMARK  105  A    between atoms: _267  and  _484
REMARK  106  A    between atoms: _268  and  _270
REMARK  107  A    between atoms: _270  and  _271
REMARK  108  A    between atoms: _270  and  _273
REMARK  109  A    between atoms: _273  and  _274
REMARK  110  A    between atoms: _277  and  _279
REMARK  111  A    between atoms: _279  and  _280
REMARK  112  A    between atoms: _279  and  _282
REMARK  113  A    between atoms: _282  and  _283
REMARK  114  A    between atoms: _288  and  _289
REMARK  115  A    between atoms: _291  and  _293
REMARK  116  A    between atoms: _293  and  _294
REMARK  117  A    between atoms: _293  and  _296
REMARK  118  A    between atoms: _296  and  _297
REMARK  119  A    between atoms: _302  and  _303
REMARK  120  A    between atoms: _305  and  _307
REMARK  121  A    between atoms: _307  and  _308
REMARK  122  A    between atoms: _307  and  _310
REMARK  123  A    between atoms: _310  and  _311
REMARK  124  A    between atoms: _311  and  _312
REMARK  125  A    between atoms: _315  and  _317
REMARK  126  A    between atoms: _317  and  _318
REMARK  127  A    between atoms: _317  and  _320
REMARK  128  A    between atoms: _320  and  _321
REMARK  129  A    between atoms: _326  and  _327
REMARK  130  A    between atoms: _329  and  _331
REMARK  131  A    between atoms: _331  and  _332
REMARK  132  A    between atoms: _331  and  _334
REMARK  133  A    between atoms: _334  and  _335
REMARK  134  A    between atoms: _340  and  _342
REMARK  135  A    between atoms: _342  and  _343
REMARK  136  A    between atoms: _342  and  _345
REMARK  137  A    between atoms: _345  and  _346
REMARK  138  A    between atoms: _349  and  _351
REMARK  139  A    between atoms: _351  and  _352
REMARK  140  A    between atoms: _351  and  _354
REMARK  141  A    between atoms: _354  and  _355
REMARK  142  A    between atoms: _360  and  _362
REMARK  143  A    between atoms: _362  and  _363
REMARK  144  A    between atoms: _362  and  _365
REMARK  145  A    between atoms: _365  and  _366
REMARK  146  A    between atoms: _376  and  _378
REMARK  147  A    between atoms: _378  and  _379
REMARK  148  A    between atoms: _378  and  _381
REMARK  149  A    between atoms: _381  and  _382
REMARK  150  A    between atoms: _388  and  _390
REMARK  151  A    between atoms: _390  and  _391
REMARK  152  A    between atoms: _390  and  _393
REMARK  153  A    between atoms: _393  and  _394
REMARK  154  A    between atoms: _397  and  _399
REMARK  155  A    between atoms: _399  and  _400
REMARK  156  A    between atoms: _399  and  _402
REMARK  157  A    between atoms: _402  and  _403
REMARK  158  A    between atoms: _406  and  _408
REMARK  159  A    between atoms: _408  and  _409
REMARK  160  A    between atoms: _408  and  _411
REMARK  161  A    between atoms: _411  and  _412
REMARK  162  A    between atoms: _412  and  _413
REMARK  163  A    between atoms: _413  and  _414
REMARK  164  A    between atoms: _423  and  _425
REMARK  165  A    between atoms: _425  and  _426
REMARK  166  A    between atoms: _425  and  _428
REMARK  167  A    between atoms: _428  and  _429
REMARK  168  A    between atoms: _434  and  _436
REMARK  169  A    between atoms: _436  and  _437
REMARK  170  A    between atoms: _436  and  _439
REMARK  171  A    between atoms: _439  and  _440
REMARK  172  A    between atoms: _441  and  _442
REMARK  173  A    between atoms: _451  and  _453
REMARK  174  A    between atoms: _453  and  _454
REMARK  175  A    between atoms: _457  and  _459
REMARK  176  A    between atoms: _459  and  _460
REMARK  177  A    between atoms: _462  and  _464
REMARK  178  A    between atoms: _464  and  _465
REMARK  179  A    between atoms: _464  and  _467
REMARK  180  A    between atoms: _467  and  _468
REMARK  181  A    between atoms: _478  and  _480
REMARK  182  A    between atoms: _480  and  _481
REMARK  183  A    between atoms: _480  and  _483
REMARK  184  A    between atoms: _483  and  _484
REMARK  185  A    between atoms: _485  and  _487
REMARK  186  A    between atoms: _487  and  _488
REMARK  187  A    between atoms: _491  and  _493
REMARK  188  A    between atoms: _493  and  _494
REMARK  189  A    between atoms: _493  and  _496
REMARK  190  A    between atoms: _496  and  _497
REMARK  191  A    between atoms: _500  and  _502
REMARK  192  A    between atoms: _502  and  _503
REMARK  193  A    between atoms: _502  and  _505
REMARK  194  A    between atoms: _505  and  _506
REMARK  195  A    between atoms: _511  and  _512
REMARK  196  A    between atoms: _514  and  _516
REMARK  197  A    between atoms: _516  and  _517
REMARK  198  A    between atoms: _516  and  _519
REMARK  199  A    between atoms: _519  and  _520
REMARK  200  A    between atoms: _522  and  _524
REMARK  201  A    between atoms: _524  and  _525
REMARK  202  A    between atoms: _524  and  _527
REMARK  203  A    between atoms: _527  and  _528
REMARK  204  A    between atoms: _534  and  _536
REMARK  205  A    between atoms: _536  and  _537
REMARK  206  A    between atoms: _536  and  _539
REMARK  207  A    between atoms: _539  and  _540
REMARK  208  A    between atoms: _543  and  _545
REMARK  209  A    between atoms: _545  and  _546
REMARK  210  A    between atoms: _545  and  _548
REMARK  211  A    between atoms: _548  and  _549
REMARK  212  A    between atoms: _551  and  _553
REMARK  213  A    between atoms: _553  and  _554
REMARK  214  A    between atoms: _553  and  _556
REMARK  215  A    between atoms: _556  and  _557
REMARK  216  A    between atoms: _562  and  _564
REMARK  217  A    between atoms: _564  and  _565
REMARK  218  A    between atoms: _564  and  _567
REMARK  219  A    between atoms: _567  and  _568
REMARK  220  A    between atoms: _571  and  _573
REMARK  221  A    between atoms: _573  and  _574
REMARK  222  A    between atoms: _573  and  _576
REMARK  223  A    between atoms: _576  and  _577
REMARK  224  A    between atoms: _582  and  _583
REMARK  225  A    between atoms: _585  and  _587
REMARK  226  A    between atoms: _587  and  _588
REMARK  227  A    between atoms: _587  and  _590
REMARK  228  A    between atoms: _590  and  _591
REMARK  229  A    between atoms: _596  and  _597
REMARK  230  A    between atoms: _599  and  _601
REMARK  231  A    between atoms: _601  and  _602
REMARK  232  A    between atoms: _601  and  _604
REMARK  233  A    between atoms: _607  and  _609
REMARK  234  A    between atoms: _609  and  _610
REMARK  235  A    between atoms: _609  and  _612
REMARK  236  A    between atoms: _612  and  _613
REMARK  237  A    between atoms: _618  and  _620
REMARK  238  A    between atoms: _620  and  _621
REMARK  239  A    between atoms: _624  and  _626
REMARK  240  A    between atoms: _626  and  _627
REMARK  241  A    between atoms: _626  and  _629
REMARK  242  A    between atoms: _629  and  _630
REMARK  243  A    between atoms: _630  and  _631
REMARK  244  A    between atoms: _631  and  _632
REMARK  245  A    between atoms: _641  and  _643
REMARK  246  A    between atoms: _643  and  _644
REMARK  247  A    between atoms: _643  and  _646
REMARK  248  A    between atoms: _646  and  _647
REMARK  249  A    between atoms: _650  and  _652
REMARK  250  A    between atoms: _652  and  _653
REMARK  251  A    between atoms: _652  and  _655
REMARK  252  A    between atoms: _655  and  _656
REMARK  253  A    between atoms: _659  and  _661
REMARK  254  A    between atoms: _661  and  _662
REMARK  255  A    between atoms: _661  and  _664
REMARK  256  A    between atoms: _664  and  _665
REMARK                            x       y       z     vdW  Elec       q    Type
REMARK                         _______ _______ _______ _____ _____    ______ ____
ROOT
ATOM      1  O   HOH     1       7.866  15.522   6.678  0.00  0.00    +0.000 OA
ENDROOT
TORSDOF 0
REMARK  Name = ../refined-set-2016/1b6h/1b6h_pocket.pdb
REMARK  256 active torsions:
REMARK  status: ('A' for Active; 'I' for Inactive)
REMARK    1  A    between atoms: _1  and  _3
REMARK    2  A    between atoms: _3  and  _4
REMARK    3  A    between atoms: _3  and  _6
REMARK    4  A    between atoms: _6  and  _7
REMARK    5  A    between atoms: _12  and  _14
REMARK    6  A    between atoms: _14  and  _15
REMARK    7  A    between atoms: _17  and  _19
REMARK    8  A    between atoms: _19  and  _20
REMARK    9  A    between atoms: _19  and  _22
REMARK   10  A    between atoms: _22  and  _23
REMARK   11  A    between atoms: _23  and  _24
REMARK   12  A    between atoms: _29  and  _31
REMARK   13  A    between atoms: _31  and  _32
REMARK   14  A    between atoms: _31  and  _34
REMARK   15  A    between atoms: _34  and  _35
REMARK   16  A    between atoms: _38  and  _40
REMARK   17  A    between atoms: _40  and  _41
REMARK   18  A    between atoms: _40  and  _43
REMARK   19  A    between atoms: _43  and  _44
REMARK   20  A    between atoms: _44  and  _45
REMARK   21  A    between atoms: _48  and  _50
REMARK   22  A    between atoms: _50  and  _51
REMARK   23  A    between atoms: _53  and  _55
REMARK   24  A    between atoms: _55  and  _56
REMARK   25  A    between atoms: _55  and  _58
REMARK   26  A    between atoms: _62  and  _63
REMARK   27  A    between atoms: _68  and  _70
REMARK   28  A    between atoms: _70  and  _71
REMARK   29  A    between atoms: _70  and  _73
REMARK   30  A    between atoms: _73  and  _74
REMARK   31  A    between atoms: _74  and  _75
REMARK   32  A    between atoms: _78  and  _80
REMARK   33  A    between atoms: _80  and  _81
REMARK   34  A    between atoms: _80  and  _83
REMARK   35  A    between atoms: _83  and  _84
REMARK   36  A    between atoms: _86  and  _88
REMARK   37  A    between atoms: _88  and  _89
REMARK   38  A    between atoms: _88  and  _91
REMARK   39  A    between atoms: _91  and  _92
REMARK   40  A    between atoms: _97  and  _99
REMARK   41  A    between atoms: _99  and  _100
REMARK   42  A    between atoms: _99  and  _102
REMARK   43  A    between atoms: _102  and  _103
REMARK   44  A    between atoms: _103  and  _104
REMARK   45  A    between atoms: _104  and  _105
REMARK   46  A    between atoms: _115  and  _116
REMARK   47  A    between atoms: _121  and  _123
REMARK   48  A    between atoms: _123  and  _124
REMARK   49  A    between atoms: _123  and  _126
REMARK   50  A    between atoms: _126  and  _127
REMARK   51  A    between atoms: _132  and  _133
REMARK   52  A    between atoms: _135  and  _137
REMARK   53  A    between atoms: _137  and  _138
REMARK   54  A    between atoms: _137  and  _140
REMARK   55  A    between atoms: _140  and  _141
REMARK   56  A    between atoms: _146  and  _147
REMARK   57  A    between atoms: _149  and  _151
REMARK   58  A    between atoms: _151  and  _152
REMARK   59  A    between atoms: _151  and  _154
REMARK   60  A    between atoms: _157  and  _159
REMARK   61  A    between atoms: _159  and  _160
REMARK   62  A    between atoms: _159  and  _162
REMARK   63  A    between atoms: _162  and  _163
REMARK   64  A    between atoms: _169  and  _170
REMARK   65  A    between atoms: _175  and  _177
REMARK   66  A    between atoms: _177  and  _178
REMARK   67  A    between atoms: _177  and  _180
REMARK   68  A    between atoms: _180  and  _181
REMARK   69  A    between atoms: _183  and  _185
REMARK   70  A    between atoms: _185  and  _186
REMARK   71  A    between atoms: _185  and  _188
REMARK   72  A    between atoms: _188  and  _189
REMARK   73  A    between atoms: _189  and  _190
REMARK   74  A    between atoms: _193  and  _195
REMARK   75  A    between atoms: _195  and  _196
REMARK   76  A    between atoms: _195  and  _198
REMARK   77  A    between atoms: _198  and  _199
REMARK   78  A    between atoms: _204  and  _205
REMARK   79  A    between atoms: _207  and  _209
REMARK   80  A    between atoms: _209  and  _210
REMARK   81  A    between atoms: _209  and  _212
REMARK   82  A    between atoms: _212  and  _213
REMARK   83  A    between atoms: _218  and  _220
REMARK   84  A    between atoms: _220  and  _221
REMARK   85  A    between atoms: _220  and  _223
REMARK   86  A    between atoms: _223  and  _224
REMARK   87  A    between atoms: _229  and  _231
REMARK   88  A    between atoms: _231  and  _232
REMARK   89  A    between atoms: _231  and  _234
REMARK   90  A    between atoms: _234  and  _235
REMARK   91  A    between atoms: _235  and  _236
REMARK   92  A    between atoms: _238  and  _240
REMARK   93  A    between atoms: _240  and  _241
REMARK   94  A    between atoms: _240  and  _243
REMARK   95  A    between atoms: _243  and  _244
REMARK   96  A    between atoms: _249  and  _250
REMARK   97  A    between atoms: _252  and  _254
REMARK   98  A    between atoms: _254  and  _255
REMARK   99  A    between atoms: _254  and  _257
REMARK  100  A    between atoms: _257  and  _258
REMARK  101  A    between atoms: _261  and  _263
REMARK  102  A    between atoms: _263  and  _264
REMARK  103  A    between atoms: _263  and  _266
REMARK  104  A    between atoms: _266  and  _267
REMARK  105  A    between atoms: _267  and  _484
REMARK  106  A    between atoms: _268  and  _270
REMARK  107  A    between atoms: _270  and  _271
REMARK  108  A    between atoms: _270  and  _273
REMARK  109  A    between atoms: _273  and  _274
REMARK  110  A    between atoms: _277  and  _279
REMARK  111  A    between atoms: _279  and  _280
REMARK  112  A    between atoms: _279  and  _282
REMARK  113  A    between atoms: _282  and  _283
REMARK  114  A    between atoms: _288  and  _289
REMARK  115  A    between atoms: _291  and  _293
REMARK  116  A    between atoms: _293  and  _294
REMARK  117  A    between atoms: _293  and  _296
REMARK  118  A    between atoms: _296  and  _297
REMARK  119  A    between atoms: _302  and  _303
REMARK  120  A    between atoms: _305  and  _307
REMARK  121  A    between atoms: _307  and  _308
REMARK  122  A    between atoms: _307  and  _310
REMARK  123  A    between atoms: _310  and  _311
REMARK  124  A    between atoms: _311  and  _312
REMARK  125  A    between atoms: _315  and  _317
REMARK  126  A    between atoms: _317  and  _318
REMARK  127  A    between atoms: _317  and  _320
REMARK  128  A    between atoms: _320  and  _321
REMARK  129  A    between atoms: _326  and  _327
REMARK  130  A    between atoms: _329  and  _331
REMARK  131  A    between atoms: _331  and  _332
REMARK  132  A    between atoms: _331  and  _334
REMARK  133  A    between atoms: _334  and  _335
REMARK  134  A    between atoms: _340  and  _342
REMARK  135  A    between atoms: _342  and  _343
REMARK  136  A    between atoms: _342  and  _345
REMARK  137  A    between atoms: _345  and  _346
REMARK  138  A    between atoms: _349  and  _351
REMARK  139  A    between atoms: _351  and  _352
REMARK  140  A    between atoms: _351  and  _354
REMARK  141  A    between atoms: _354  and  _355
REMARK  142  A    between atoms: _360  and  _362
REMARK  143  A    between atoms: _362  and  _363
REMARK  144  A    between atoms: _362  and  _365
REMARK  145  A    between atoms: _365  and  _366
REMARK  146  A    between atoms: _376  and  _378
REMARK  147  A    between atoms: _378  and  _379
REMARK  148  A    between atoms: _378  and  _381
REMARK  149  A    between atoms: _381  and  _382
REMARK  150  A    between atoms: _388  and  _390
REMARK  151  A    between atoms: _390  and  _391
REMARK  152  A    between atoms: _390  and  _393
REMARK  153  A    between atoms: _393  and  _394
REMARK  154  A    between atoms: _397  and  _399
REMARK  155  A    between atoms: _399  and  _400
REMARK  156  A    between atoms: _399  and  _402
REMARK  157  A    between atoms: _402  and  _403
REMARK  158  A    between atoms: _406  and  _408
REMARK  159  A    between atoms: _408  and  _409
REMARK  160  A    between atoms: _408  and  _411
REMARK  161  A    between atoms: _411  and  _412
REMARK  162  A    between atoms: _412  and  _413
REMARK  163  A    between atoms: _413  and  _414
REMARK  164  A    between atoms: _423  and  _425
REMARK  165  A    between atoms: _425  and  _426
REMARK  166  A    between atoms: _425  and  _428
REMARK  167  A    between atoms: _428  and  _429
REMARK  168  A    between atoms: _434  and  _436
REMARK  169  A    between atoms: _436  and  _437
REMARK  170  A    between atoms: _436  and  _439
REMARK  171  A    between atoms: _439  and  _440
REMARK  172  A    between atoms: _441  and  _442
REMARK  173  A    between atoms: _451  and  _453
REMARK  174  A    between atoms: _453  and  _454
REMARK  175  A    between atoms: _457  and  _459
REMARK  176  A    between atoms: _459  and  _460
REMARK  177  A    between atoms: _462  and  _464
REMARK  178  A    between atoms: _464  and  _465
REMARK  179  A    between atoms: _464  and  _467
REMARK  180  A    between atoms: _467  and  _468
REMARK  181  A    between atoms: _478  and  _480
REMARK  182  A    between atoms: _480  and  _481
REMARK  183  A    between atoms: _480  and  _483
REMARK  184  A    between atoms: _483  and  _484
REMARK  185  A    between atoms: _485  and  _487
REMARK  186  A    between atoms: _487  and  _488
REMARK  187  A    between atoms: _491  and  _493
REMARK  188  A    between atoms: _493  and  _494
REMARK  189  A    between atoms: _493  and  _496
REMARK  190  A    between atoms: _496  and  _497
REMARK  191  A    between atoms: _500  and  _502
REMARK  192  A    between atoms: _502  and  _503
REMARK  193  A    between atoms: _502  and  _505
REMARK  194  A    between atoms: _505  and  _506
REMARK  195  A    between atoms: _511  and  _512
REMARK  196  A    between atoms: _514  and  _516
REMARK  197  A    between atoms: _516  and  _517
REMARK  198  A    between atoms: _516  and  _519
REMARK  199  A    between atoms: _519  and  _520
REMARK  200  A    between atoms: _522  and  _524
REMARK  201  A    between atoms: _524  and  _525
REMARK  202  A    between atoms: _524  and  _527
REMARK  203  A    between atoms: _527  and  _528
REMARK  204  A    between atoms: _534  and  _536
REMARK  205  A    between atoms: _536  and  _537
REMARK  206  A    between atoms: _536  and  _539
REMARK  207  A    between atoms: _539  and  _540
REMARK  208  A    between atoms: _543  and  _545
REMARK  209  A    between atoms: _545  and  _546
REMARK  210  A    between atoms: _545  and  _548
REMARK  211  A    between atoms: _548  and  _549
REMARK  212  A    between atoms: _551  and  _553
REMARK  213  A    between atoms: _553  and  _554
REMARK  214  A    between atoms: _553  and  _556
REMARK  215  A    between atoms: _556  and  _557
REMARK  216  A    between atoms: _562  and  _564
REMARK  217  A    between atoms: _564  and  _565
REMARK  218  A    between atoms: _564  and  _567
REMARK  219  A    between atoms: _567  and  _568
REMARK  220  A    between atoms: _571  and  _573
REMARK  221  A    between atoms: _573  and  _574
REMARK  222  A    between atoms: _573  and  _576
REMARK  223  A    between atoms: _576  and  _577
REMARK  224  A    between atoms: _582  and  _583
REMARK  225  A    between atoms: _585  and  _587
REMARK  226  A    between atoms: _587  and  _588
REMARK  227  A    between atoms: _587  and  _590
REMARK  228  A    between atoms: _590  and  _591
REMARK  229  A    between atoms: _596  and  _597
REMARK  230  A    between atoms: _599  and  _601
REMARK  231  A    between atoms: _601  and  _602
REMARK  232  A    between atoms: _601  and  _604
REMARK  233  A    between atoms: _607  and  _609
REMARK  234  A    between atoms: _609  and  _610
REMARK  235  A    between atoms: _609  and  _612
REMARK  236  A    between atoms: _612  and  _613
REMARK  237  A    between atoms: _618  and  _620
REMARK  238  A    between atoms: _620  and  _621
REMARK  239  A    between atoms: _624  and  _626
REMARK  240  A    between atoms: _626  and  _627
REMARK  241  A    between atoms: _626  and  _629
REMARK  242  A    between atoms: _629  and  _630
REMARK  243  A    between atoms: _630  and  _631
REMARK  244  A    between atoms: _631  and  _632
REMARK  245  A    between atoms: _641  and  _643
REMARK  246  A    between atoms: _643  and  _644
REMARK  247  A    between atoms: _643  and  _646
REMARK  248  A    between atoms: _646  and  _647
REMARK  249  A    between atoms: _650  and  _652
REMARK  250  A    between atoms: _652  and  _653
REMARK  251  A    between atoms: _652  and  _655
REMARK  252  A    between atoms: _655  and  _656
REMARK  253  A    between atoms: _659  and  _661
REMARK  254  A    between atoms: _661  and  _662
REMARK  255  A    between atoms: _661  and  _664
REMARK  256  A    between atoms: _664  and  _665
REMARK                            x       y       z     vdW  Elec       q    Type
REMARK                         _______ _______ _______ _____ _____    ______ ____
ROOT
ATOM      1  O   HOH     1       5.585  20.208  24.715  0.00  0.00    +0.000 OA
ENDROOT
TORSDOF 0
REMARK  Name = ../refined-set-2016/1b6h/1b6h_pocket.pdb
REMARK  256 active torsions:
REMARK  status: ('A' for Active; 'I' for Inactive)
REMARK    1  A    between atoms: _1  and  _3
REMARK    2  A    between atoms: _3  and  _4
REMARK    3  A    between atoms: _3  and  _6
REMARK    4  A    between atoms: _6  and  _7
REMARK    5  A    between atoms: _12  and  _14
REMARK    6  A    between atoms: _14  and  _15
REMARK    7  A    between atoms: _17  and  _19
REMARK    8  A    between atoms: _19  and  _20
REMARK    9  A    between atoms: _19  and  _22
REMARK   10  A    between atoms: _22  and  _23
REMARK   11  A    between atoms: _23  and  _24
REMARK   12  A    between atoms: _29  and  _31
REMARK   13  A    between atoms: _31  and  _32
REMARK   14  A    between atoms: _31  and  _34
REMARK   15  A    between atoms: _34  and  _35
REMARK   16  A    between atoms: _38  and  _40
REMARK   17  A    between atoms: _40  and  _41
REMARK   18  A    between atoms: _40  and  _43
REMARK   19  A    between atoms: _43  and  _44
REMARK   20  A    between atoms: _44  and  _45
REMARK   21  A    between atoms: _48  and  _50
REMARK   22  A    between atoms: _50  and  _51
REMARK   23  A    between atoms: _53  and  _55
REMARK   24  A    between atoms: _55  and  _56
REMARK   25  A    between atoms: _55  and  _58
REMARK   26  A    between atoms: _62  and  _63
REMARK   27  A    between atoms: _68  and  _70
REMARK   28  A    between atoms: _70  and  _71
REMARK   29  A    between atoms: _70  and  _73
REMARK   30  A    between atoms: _73  and  _74
REMARK   31  A    between atoms: _74  and  _75
REMARK   32  A    between atoms: _78  and  _80
REMARK   33  A    between atoms: _80  and  _81
REMARK   34  A    between atoms: _80  and  _83
REMARK   35  A    between atoms: _83  and  _84
REMARK   36  A    between atoms: _86  and  _88
REMARK   37  A    between atoms: _88  and  _89
REMARK   38  A    between atoms: _88  and  _91
REMARK   39  A    between atoms: _91  and  _92
REMARK   40  A    between atoms: _97  and  _99
REMARK   41  A    between atoms: _99  and  _100
REMARK   42  A    between atoms: _99  and  _102
REMARK   43  A    between atoms: _102  and  _103
REMARK   44  A    between atoms: _103  and  _104
REMARK   45  A    between atoms: _104  and  _105
REMARK   46  A    between atoms: _115  and  _116
REMARK   47  A    between atoms: _121  and  _123
REMARK   48  A    between atoms: _123  and  _124
REMARK   49  A    between atoms: _123  and  _126
REMARK   50  A    between atoms: _126  and  _127
REMARK   51  A    between atoms: _132  and  _133
REMARK   52  A    between atoms: _135  and  _137
REMARK   53  A    between atoms: _137  and  _138
REMARK   54  A    between atoms: _137  and  _140
REMARK   55  A    between atoms: _140  and  _141
REMARK   56  A    between atoms: _146  and  _147
REMARK   57  A    between atoms: _149  and  _151
REMARK   58  A    between atoms: _151  and  _152
REMARK   59  A    between atoms: _151  and  _154
REMARK   60  A    between atoms: _157  and  _159
REMARK   61  A    between atoms: _159  and  _160
REMARK   62  A    between atoms: _159  and  _162
REMARK   63  A    between atoms: _162  and  _163
REMARK   64  A    between atoms: _169  and  _170
REMARK   65  A    between atoms: _175  and  _177
REMARK   66  A    between atoms: _177  and  _178
REMARK   67  A    between atoms: _177  and  _180
REMARK   68  A    between atoms: _180  and  _181
REMARK   69  A    between atoms: _183  and  _185
REMARK   70  A    between atoms: _185  and  _186
REMARK   71  A    between atoms: _185  and  _188
REMARK   72  A    between atoms: _188  and  _189
REMARK   73  A    between atoms: _189  and  _190
REMARK   74  A    between atoms: _193  and  _195
REMARK   75  A    between atoms: _195  and  _196
REMARK   76  A    between atoms: _195  and  _198
REMARK   77  A    between atoms: _198  and  _199
REMARK   78  A    between atoms: _204  and  _205
REMARK   79  A    between atoms: _207  and  _209
REMARK   80  A    between atoms: _209  and  _210
REMARK   81  A    between atoms: _209  and  _212
REMARK   82  A    between atoms: _212  and  _213
REMARK   83  A    between atoms: _218  and  _220
REMARK   84  A    between atoms: _220  and  _221
REMARK   85  A    between atoms: _220  and  _223
REMARK   86  A    between atoms: _223  and  _224
REMARK   87  A    between atoms: _229  and  _231
REMARK   88  A    between atoms: _231  and  _232
REMARK   89  A    between atoms: _231  and  _234
REMARK   90  A    between atoms: _234  and  _235
REMARK   91  A    between atoms: _235  and  _236
REMARK   92  A    between atoms: _238  and  _240
REMARK   93  A    between atoms: _240  and  _241
REMARK   94  A    between atoms: _240  and  _243
REMARK   95  A    between atoms: _243  and  _244
REMARK   96  A    between atoms: _249  and  _250
REMARK   97  A    between atoms: _252  and  _254
REMARK   98  A    between atoms: _254  and  _255
REMARK   99  A    between atoms: _254  and  _257
REMARK  100  A    between atoms: _257  and  _258
REMARK  101  A    between atoms: _261  and  _263
REMARK  102  A    between atoms: _263  and  _264
REMARK  103  A    between atoms: _263  and  _266
REMARK  104  A    between atoms: _266  and  _267
REMARK  105  A    between atoms: _267  and  _484
REMARK  106  A    between atoms: _268  and  _270
REMARK  107  A    between atoms: _270  and  _271
REMARK  108  A    between atoms: _270  and  _273
REMARK  109  A    between atoms: _273  and  _274
REMARK  110  A    between atoms: _277  and  _279
REMARK  111  A    between atoms: _279  and  _280
REMARK  112  A    between atoms: _279  and  _282
REMARK  113  A    between atoms: _282  and  _283
REMARK  114  A    between atoms: _288  and  _289
REMARK  115  A    between atoms: _291  and  _293
REMARK  116  A    between atoms: _293  and  _294
REMARK  117  A    between atoms: _293  and  _296
REMARK  118  A    between atoms: _296  and  _297
REMARK  119  A    between atoms: _302  and  _303
REMARK  120  A    between atoms: _305  and  _307
REMARK  121  A    between atoms: _307  and  _308
REMARK  122  A    between atoms: _307  and  _310
REMARK  123  A    between atoms: _310  and  _311
REMARK  124  A    between atoms: _311  and  _312
REMARK  125  A    between atoms: _315  and  _317
REMARK  126  A    between atoms: _317  and  _318
REMARK  127  A    between atoms: _317  and  _320
REMARK  128  A    between atoms: _320  and  _321
REMARK  129  A    between atoms: _326  and  _327
REMARK  130  A    between atoms: _329  and  _331
REMARK  131  A    between atoms: _331  and  _332
REMARK  132  A    between atoms: _331  and  _334
REMARK  133  A    between atoms: _334  and  _335
REMARK  134  A    between atoms: _340  and  _342
REMARK  135  A    between atoms: _342  and  _343
REMARK  136  A    between atoms: _342  and  _345
REMARK  137  A    between atoms: _345  and  _346
REMARK  138  A    between atoms: _349  and  _351
REMARK  139  A    between atoms: _351  and  _352
REMARK  140  A    between atoms: _351  and  _354
REMARK  141  A    between atoms: _354  and  _355
REMARK  142  A    between atoms: _360  and  _362
REMARK  143  A    between atoms: _362  and  _363
REMARK  144  A    between atoms: _362  and  _365
REMARK  145  A    between atoms: _365  and  _366
REMARK  146  A    between atoms: _376  and  _378
REMARK  147  A    between atoms: _378  and  _379
REMARK  148  A    between atoms: _378  and  _381
REMARK  149  A    between atoms: _381  and  _382
REMARK  150  A    between atoms: _388  and  _390
REMARK  151  A    between atoms: _390  and  _391
REMARK  152  A    between atoms: _390  and  _393
REMARK  153  A    between atoms: _393  and  _394
REMARK  154  A    between atoms: _397  and  _399
REMARK  155  A    between atoms: _399  and  _400
REMARK  156  A    between atoms: _399  and  _402
REMARK  157  A    between atoms: _402  and  _403
REMARK  158  A    between atoms: _406  and  _408
REMARK  159  A    between atoms: _408  and  _409
REMARK  160  A    between atoms: _408  and  _411
REMARK  161  A    between atoms: _411  and  _412
REMARK  162  A    between atoms: _412  and  _413
REMARK  163  A    between atoms: _413  and  _414
REMARK  164  A    between atoms: _423  and  _425
REMARK  165  A    between atoms: _425  and  _426
REMARK  166  A    between atoms: _425  and  _428
REMARK  167  A    between atoms: _428  and  _429
REMARK  168  A    between atoms: _434  and  _436
REMARK  169  A    between atoms: _436  and  _437
REMARK  170  A    between atoms: _436  and  _439
REMARK  171  A    between atoms: _439  and  _440
REMARK  172  A    between atoms: _441  and  _442
REMARK  173  A    between atoms: _451  and  _453
REMARK  174  A    between atoms: _453  and  _454
REMARK  175  A    between atoms: _457  and  _459
REMARK  176  A    between atoms: _459  and  _460
REMARK  177  A    between atoms: _462  and  _464
REMARK  178  A    between atoms: _464  and  _465
REMARK  179  A    between atoms: _464  and  _467
REMARK  180  A    between atoms: _467  and  _468
REMARK  181  A    between atoms: _478  and  _480
REMARK  182  A    between atoms: _480  and  _481
REMARK  183  A    between atoms: _480  and  _483
REMARK  184  A    between atoms: _483  and  _484
REMARK  185  A    between atoms: _485  and  _487
REMARK  186  A    between atoms: _487  and  _488
REMARK  187  A    between atoms: _491  and  _493
REMARK  188  A    between atoms: _493  and  _494
REMARK  189  A    between atoms: _493  and  _496
REMARK  190  A    between atoms: _496  and  _497
REMARK  191  A    between atoms: _500  and  _502
REMARK  192  A    between atoms: _502  and  _503
REMARK  193  A    between atoms: _502  and  _505
REMARK  194  A    between atoms: _505  and  _506
REMARK  195  A    between atoms: _511  and  _512
REMARK  196  A    between atoms: _514  and  _516
REMARK  197  A    between atoms: _516  and  _517
REMARK  198  A    between atoms: _516  and  _519
REMARK  199  A    between atoms: _519  and  _520
REMARK  200  A    between atoms: _522  and  _524
REMARK  201  A    between atoms: _524  and  _525
REMARK  202  A    between atoms: _524  and  _527
REMARK  203  A    between atoms: _527  and  _528
REMARK  204  A    between atoms: _534  and  _536
REMARK  205  A    between atoms: _536  and  _537
REMARK  206  A    between atoms: _536  and  _539
REMARK  207  A    between atoms: _539  and  _540
REMARK  208  A    between atoms: _543  and  _545
REMARK  209  A    between atoms: _545  and  _546
REMARK  210  A    between atoms: _545  and  _548
REMARK  211  A    between atoms: _548  and  _549
REMARK  212  A    between atoms: _551  and  _553
REMARK  213  A    between atoms: _553  and  _554
REMARK  214  A    between atoms: _553  and  _556
REMARK  215  A    between atoms: _556  and  _557
REMARK  216  A    between atoms: _562  and  _564
REMARK  217  A    between atoms: _564  and  _565
REMARK  218  A    between atoms: _564  and  _567
REMARK  219  A    between atoms: _567  and  _568
REMARK  220  A    between atoms: _571  and  _573
REMARK  221  A    between atoms: _573  and  _574
REMARK  222  A    between atoms: _573  and  _576
REMARK  223  A    between atoms: _576  and  _577
REMARK  224  A    between atoms: _582  and  _583
REMARK  225  A    between atoms: _585  and  _587
REMARK  226  A    between atoms: _587  and  _588
REMARK  227  A    between atoms: _587  and  _590
REMARK  228  A    between atoms: _590  and  _591
REMARK  229  A    between atoms: _596  and  _597
REMARK  230  A    between atoms: _599  and  _601
REMARK  231  A    between atoms: _601  and  _602
REMARK  232  A    between atoms: _601  and  _604
REMARK  233  A    between atoms: _607  and  _609
REMARK  234  A    between atoms: _609  and  _610
REMARK  235  A    between atoms: _609  and  _612
REMARK  236  A    between atoms: _612  and  _613
REMARK  237  A    between atoms: _618  and  _620
REMARK  238  A    between atoms: _620  and  _621
REMARK  239  A    between atoms: _624  and  _626
REMARK  240  A    between atoms: _626  and  _627
REMARK  241  A    between atoms: _626  and  _629
REMARK  242  A    between atoms: _629  and  _630
REMARK  243  A    between atoms: _630  and  _631
REMARK  244  A    between atoms: _631  and  _632
REMARK  245  A    between atoms: _641  and  _643
REMARK  246  A    between atoms: _643  and  _644
REMARK  247  A    between atoms: _643  and  _646
REMARK  248  A    between atoms: _646  and  _647
REMARK  249  A    between atoms: _650  and  _652
REMARK  250  A    between atoms: _652  and  _653
REMARK  251  A    between atoms: _652  and  _655
REMARK  252  A    between atoms: _655  and  _656
REMARK  253  A    between atoms: _659  and  _661
REMARK  254  A    between atoms: _661  and  _662
REMARK  255  A    between atoms: _661  and  _664
REMARK  256  A    between atoms: _664  and  _665
REMARK                            x       y       z     vdW  Elec       q    Type
REMARK                         _______ _______ _______ _____ _____    ______ ____
ROOT
ATOM      1  O   HOH     1       1.533  14.558  11.185  0.00  0.00    +0.000 OA
ENDROOT
TORSDOF 0
REMARK  Name = ../refined-set-2016/1b6h/1b6h_pocket.pdb
REMARK  256 active torsions:
REMARK  status: ('A' for Active; 'I' for Inactive)
REMARK    1  A    between atoms: _1  and  _3
REMARK    2  A    between atoms: _3  and  _4
REMARK    3  A    between atoms: _3  and  _6
REMARK    4  A    between atoms: _6  and  _7
REMARK    5  A    between atoms: _12  and  _14
REMARK    6  A    between atoms: _14  and  _15
REMARK    7  A    between atoms: _17  and  _19
REMARK    8  A    between atoms: _19  and  _20
REMARK    9  A    between atoms: _19  and  _22
REMARK   10  A    between atoms: _22  and  _23
REMARK   11  A    between atoms: _23  and  _24
REMARK   12  A    between atoms: _29  and  _31
REMARK   13  A    between atoms: _31  and  _32
REMARK   14  A    between atoms: _31  and  _34
REMARK   15  A    between atoms: _34  and  _35
REMARK   16  A    between atoms: _38  and  _40
REMARK   17  A    between atoms: _40  and  _41
REMARK   18  A    between atoms: _40  and  _43
REMARK   19  A    between atoms: _43  and  _44
REMARK   20  A    between atoms: _44  and  _45
REMARK   21  A    between atoms: _48  and  _50
REMARK   22  A    between atoms: _50  and  _51
REMARK   23  A    between atoms: _53  and  _55
REMARK   24  A    between atoms: _55  and  _56
REMARK   25  A    between atoms: _55  and  _58
REMARK   26  A    between atoms: _62  and  _63
REMARK   27  A    between atoms: _68  and  _70
REMARK   28  A    between atoms: _70  and  _71
REMARK   29  A    between atoms: _70  and  _73
REMARK   30  A    between atoms: _73  and  _74
REMARK   31  A    between atoms: _74  and  _75
REMARK   32  A    between atoms: _78  and  _80
REMARK   33  A    between atoms: _80  and  _81
REMARK   34  A    between atoms: _80  and  _83
REMARK   35  A    between atoms: _83  and  _84
REMARK   36  A    between atoms: _86  and  _88
REMARK   37  A    between atoms: _88  and  _89
REMARK   38  A    between atoms: _88  and  _91
REMARK   39  A    between atoms: _91  and  _92
REMARK   40  A    between atoms: _97  and  _99
REMARK   41  A    between atoms: _99  and  _100
REMARK   42  A    between atoms: _99  and  _102
REMARK   43  A    between atoms: _102  and  _103
REMARK   44  A    between atoms: _103  and  _104
REMARK   45  A    between atoms: _104  and  _105
REMARK   46  A    between atoms: _115  and  _116
REMARK   47  A    between atoms: _121  and  _123
REMARK   48  A    between atoms: _123  and  _124
REMARK   49  A    between atoms: _123  and  _126
REMARK   50  A    between atoms: _126  and  _127
REMARK   51  A    between atoms: _132  and  _133
REMARK   52  A    between atoms: _135  and  _137
REMARK   53  A    between atoms: _137  and  _138
REMARK   54  A    between atoms: _137  and  _140
REMARK   55  A    between atoms: _140  and  _141
REMARK   56  A    between atoms: _146  and  _147
REMARK   57  A    between atoms: _149  and  _151
REMARK   58  A    between atoms: _151  and  _152
REMARK   59  A    between atoms: _151  and  _154
REMARK   60  A    between atoms: _157  and  _159
REMARK   61  A    between atoms: _159  and  _160
REMARK   62  A    between atoms: _159  and  _162
REMARK   63  A    between atoms: _162  and  _163
REMARK   64  A    between atoms: _169  and  _170
REMARK   65  A    between atoms: _175  and  _177
REMARK   66  A    between atoms: _177  and  _178
REMARK   67  A    between atoms: _177  and  _180
REMARK   68  A    between atoms: _180  and  _181
REMARK   69  A    between atoms: _183  and  _185
REMARK   70  A    between atoms: _185  and  _186
REMARK   71  A    between atoms: _185  and  _188
REMARK   72  A    between atoms: _188  and  _189
REMARK   73  A    between atoms: _189  and  _190
REMARK   74  A    between atoms: _193  and  _195
REMARK   75  A    between atoms: _195  and  _196
REMARK   76  A    between atoms: _195  and  _198
REMARK   77  A    between atoms: _198  and  _199
REMARK   78  A    between atoms: _204  and  _205
REMARK   79  A    between atoms: _207  and  _209
REMARK   80  A    between atoms: _209  and  _210
REMARK   81  A    between atoms: _209  and  _212
REMARK   82  A    between atoms: _212  and  _213
REMARK   83  A    between atoms: _218  and  _220
REMARK   84  A    between atoms: _220  and  _221
REMARK   85  A    between atoms: _220  and  _223
REMARK   86  A    between atoms: _223  and  _224
REMARK   87  A    between atoms: _229  and  _231
REMARK   88  A    between atoms: _231  and  _232
REMARK   89  A    between atoms: _231  and  _234
REMARK   90  A    between atoms: _234  and  _235
REMARK   91  A    between atoms: _235  and  _236
REMARK   92  A    between atoms: _238  and  _240
REMARK   93  A    between atoms: _240  and  _241
REMARK   94  A    between atoms: _240  and  _243
REMARK   95  A    between atoms: _243  and  _244
REMARK   96  A    between atoms: _249  and  _250
REMARK   97  A    between atoms: _252  and  _254
REMARK   98  A    between atoms: _254  and  _255
REMARK   99  A    between atoms: _254  and  _257
REMARK  100  A    between atoms: _257  and  _258
REMARK  101  A    between atoms: _261  and  _263
REMARK  102  A    between atoms: _263  and  _264
REMARK  103  A    between atoms: _263  and  _266
REMARK  104  A    between atoms: _266  and  _267
REMARK  105  A    between atoms: _267  and  _484
REMARK  106  A    between atoms: _268  and  _270
REMARK  107  A    between atoms: _270  and  _271
REMARK  108  A    between atoms: _270  and  _273
REMARK  109  A    between atoms: _273  and  _274
REMARK  110  A    between atoms: _277  and  _279
REMARK  111  A    between atoms: _279  and  _280
REMARK  112  A    between atoms: _279  and  _282
REMARK  113  A    between atoms: _282  and  _283
REMARK  114  A    between atoms: _288  and  _289
REMARK  115  A    between atoms: _291  and  _293
REMARK  116  A    between atoms: _293  and  _294
REMARK  117  A    between atoms: _293  and  _296
REMARK  118  A    between atoms: _296  and  _297
REMARK  119  A    between atoms: _302  and  _303
REMARK  120  A    between atoms: _305  and  _307
REMARK  121  A    between atoms: _307  and  _308
REMARK  122  A    between atoms: _307  and  _310
REMARK  123  A    between atoms: _310  and  _311
REMARK  124  A    between atoms: _311  and  _312
REMARK  125  A    between atoms: _315  and  _317
REMARK  126  A    between atoms: _317  and  _318
REMARK  127  A    between atoms: _317  and  _320
REMARK  128  A    between atoms: _320  and  _321
REMARK  129  A    between atoms: _326  and  _327
REMARK  130  A    between atoms: _329  and  _331
REMARK  131  A    between atoms: _331  and  _332
REMARK  132  A    between atoms: _331  and  _334
REMARK  133  A    between atoms: _334  and  _335
REMARK  134  A    between atoms: _340  and  _342
REMARK  135  A    between atoms: _342  and  _343
REMARK  136  A    between atoms: _342  and  _345
REMARK  137  A    between atoms: _345  and  _346
REMARK  138  A    between atoms: _349  and  _351
REMARK  139  A    between atoms: _351  and  _352
REMARK  140  A    between atoms: _351  and  _354
REMARK  141  A    between atoms: _354  and  _355
REMARK  142  A    between atoms: _360  and  _362
REMARK  143  A    between atoms: _362  and  _363
REMARK  144  A    between atoms: _362  and  _365
REMARK  145  A    between atoms: _365  and  _366
REMARK  146  A    between atoms: _376  and  _378
REMARK  147  A    between atoms: _378  and  _379
REMARK  148  A    between atoms: _378  and  _381
REMARK  149  A    between atoms: _381  and  _382
REMARK  150  A    between atoms: _388  and  _390
REMARK  151  A    between atoms: _390  and  _391
REMARK  152  A    between atoms: _390  and  _393
REMARK  153  A    between atoms: _393  and  _394
REMARK  154  A    between atoms: _397  and  _399
REMARK  155  A    between atoms: _399  and  _400
REMARK  156  A    between atoms: _399  and  _402
REMARK  157  A    between atoms: _402  and  _403
REMARK  158  A    between atoms: _406  and  _408
REMARK  159  A    between atoms: _408  and  _409
REMARK  160  A    between atoms: _408  and  _411
REMARK  161  A    between atoms: _411  and  _412
REMARK  162  A    between atoms: _412  and  _413
REMARK  163  A    between atoms: _413  and  _414
REMARK  164  A    between atoms: _423  and  _425
REMARK  165  A    between atoms: _425  and  _426
REMARK  166  A    between atoms: _425  and  _428
REMARK  167  A    between atoms: _428  and  _429
REMARK  168  A    between atoms: _434  and  _436
REMARK  169  A    between atoms: _436  and  _437
REMARK  170  A    between atoms: _436  and  _439
REMARK  171  A    between atoms: _439  and  _440
REMARK  172  A    between atoms: _441  and  _442
REMARK  173  A    between atoms: _451  and  _453
REMARK  174  A    between atoms: _453  and  _454
REMARK  175  A    between atoms: _457  and  _459
REMARK  176  A    between atoms: _459  and  _460
REMARK  177  A    between atoms: _462  and  _464
REMARK  178  A    between atoms: _464  and  _465
REMARK  179  A    between atoms: _464  and  _467
REMARK  180  A    between atoms: _467  and  _468
REMARK  181  A    between atoms: _478  and  _480
REMARK  182  A    between atoms: _480  and  _481
REMARK  183  A    between atoms: _480  and  _483
REMARK  184  A    between atoms: _483  and  _484
REMARK  185  A    between atoms: _485  and  _487
REMARK  186  A    between atoms: _487  and  _488
REMARK  187  A    between atoms: _491  and  _493
REMARK  188  A    between atoms: _493  and  _494
REMARK  189  A    between atoms: _493  and  _496
REMARK  190  A    between atoms: _496  and  _497
REMARK  191  A    between atoms: _500  and  _502
REMARK  192  A    between atoms: _502  and  _503
REMARK  193  A    between atoms: _502  and  _505
REMARK  194  A    between atoms: _505  and  _506
REMARK  195  A    between atoms: _511  and  _512
REMARK  196  A    between atoms: _514  and  _516
REMARK  197  A    between atoms: _516  and  _517
REMARK  198  A    between atoms: _516  and  _519
REMARK  199  A    between atoms: _519  and  _520
REMARK  200  A    between atoms: _522  and  _524
REMARK  201  A    between atoms: _524  and  _525
REMARK  202  A    between atoms: _524  and  _527
REMARK  203  A    between atoms: _527  and  _528
REMARK  204  A    between atoms: _534  and  _536
REMARK  205  A    between atoms: _536  and  _537
REMARK  206  A    between atoms: _536  and  _539
REMARK  207  A    between atoms: _539  and  _540
REMARK  208  A    between atoms: _543  and  _545
REMARK  209  A    between atoms: _545  and  _546
REMARK  210  A    between atoms: _545  and  _548
REMARK  211  A    between atoms: _548  and  _549
REMARK  212  A    between atoms: _551  and  _553
REMARK  213  A    between atoms: _553  and  _554
REMARK  214  A    between atoms: _553  and  _556
REMARK  215  A    between atoms: _556  and  _557
REMARK  216  A    between atoms: _562  and  _564
REMARK  217  A    between atoms: _564  and  _565
REMARK  218  A    between atoms: _564  and  _567
REMARK  219  A    between atoms: _567  and  _568
REMARK  220  A    between atoms: _571  and  _573
REMARK  221  A    between atoms: _573  and  _574
REMARK  222  A    between atoms: _573  and  _576
REMARK  223  A    between atoms: _576  and  _577
REMARK  224  A    between atoms: _582  and  _583
REMARK  225  A    between atoms: _585  and  _587
REMARK  226  A    between atoms: _587  and  _588
REMARK  227  A    between atoms: _587  and  _590
REMARK  228  A    between atoms: _590  and  _591
REMARK  229  A    between atoms: _596  and  _597
REMARK  230  A    between atoms: _599  and  _601
REMARK  231  A    between atoms: _601  and  _602
REMARK  232  A    between atoms: _601  and  _604
REMARK  233  A    between atoms: _607  and  _609
REMARK  234  A    between atoms: _609  and  _610
REMARK  235  A    between atoms: _609  and  _612
REMARK  236  A    between atoms: _612  and  _613
REMARK  237  A    between atoms: _618  and  _620
REMARK  238  A    between atoms: _620  and  _621
REMARK  239  A    between atoms: _624  and  _626
REMARK  240  A    between atoms: _626  and  _627
REMARK  241  A    between atoms: _626  and  _629
REMARK  242  A    between atoms: _629  and  _630
REMARK  243  A    between atoms: _630  and  _631
REMARK  244  A    between atoms: _631  and  _632
REMARK  245  A    between atoms: _641  and  _643
REMARK  246  A    between atoms: _643  and  _644
REMARK  247  A    between atoms: _643  and  _646
REMARK  248  A    between atoms: _646  and  _647
REMARK  249  A    between atoms: _650  and  _652
REMARK  250  A    between atoms: _652  and  _653
REMARK  251  A    between atoms: _652  and  _655
REMARK  252  A    between atoms: _655  and  _656
REMARK  253  A    between atoms: _659  and  _661
REMARK  254  A    between atoms: _661  and  _662
REMARK  255  A    between atoms: _661  and  _664
REMARK  256  A    between atoms: _664  and  _665
REMARK                            x       y       z     vdW  Elec       q    Type
REMARK                         _______ _______ _______ _____ _____    ______ ____
ROOT
ATOM      1  O   HOH     1       3.928  20.260  20.707  0.00  0.00    +0.000 OA
ENDROOT
TORSDOF 0
REMARK  Name = ../refined-set-2016/1b6h/1b6h_pocket.pdb
REMARK  256 active torsions:
REMARK  status: ('A' for Active; 'I' for Inactive)
REMARK    1  A    between atoms: _1  and  _3
REMARK    2  A    between atoms: _3  and  _4
REMARK    3  A    between atoms: _3  and  _6
REMARK    4  A    between atoms: _6  and  _7
REMARK    5  A    between atoms: _12  and  _14
REMARK    6  A    between atoms: _14  and  _15
REMARK    7  A    between atoms: _17  and  _19
REMARK    8  A    between atoms: _19  and  _20
REMARK    9  A    between atoms: _19  and  _22
REMARK   10  A    between atoms: _22  and  _23
REMARK   11  A    between atoms: _23  and  _24
REMARK   12  A    between atoms: _29  and  _31
REMARK   13  A    between atoms: _31  and  _32
REMARK   14  A    between atoms: _31  and  _34
REMARK   15  A    between atoms: _34  and  _35
REMARK   16  A    between atoms: _38  and  _40
REMARK   17  A    between atoms: _40  and  _41
REMARK   18  A    between atoms: _40  and  _43
REMARK   19  A    between atoms: _43  and  _44
REMARK   20  A    between atoms: _44  and  _45
REMARK   21  A    between atoms: _48  and  _50
REMARK   22  A    between atoms: _50  and  _51
REMARK   23  A    between atoms: _53  and  _55
REMARK   24  A    between atoms: _55  and  _56
REMARK   25  A    between atoms: _55  and  _58
REMARK   26  A    between atoms: _62  and  _63
REMARK   27  A    between atoms: _68  and  _70
REMARK   28  A    between atoms: _70  and  _71
REMARK   29  A    between atoms: _70  and  _73
REMARK   30  A    between atoms: _73  and  _74
REMARK   31  A    between atoms: _74  and  _75
REMARK   32  A    between atoms: _78  and  _80
REMARK   33  A    between atoms: _80  and  _81
REMARK   34  A    between atoms: _80  and  _83
REMARK   35  A    between atoms: _83  and  _84
REMARK   36  A    between atoms: _86  and  _88
REMARK   37  A    between atoms: _88  and  _89
REMARK   38  A    between atoms: _88  and  _91
REMARK   39  A    between atoms: _91  and  _92
REMARK   40  A    between atoms: _97  and  _99
REMARK   41  A    between atoms: _99  and  _100
REMARK   42  A    between atoms: _99  and  _102
REMARK   43  A    between atoms: _102  and  _103
REMARK   44  A    between atoms: _103  and  _104
REMARK   45  A    between atoms: _104  and  _105
REMARK   46  A    between atoms: _115  and  _116
REMARK   47  A    between atoms: _121  and  _123
REMARK   48  A    between atoms: _123  and  _124
REMARK   49  A    between atoms: _123  and  _126
REMARK   50  A    between atoms: _126  and  _127
REMARK   51  A    between atoms: _132  and  _133
REMARK   52  A    between atoms: _135  and  _137
REMARK   53  A    between atoms: _137  and  _138
REMARK   54  A    between atoms: _137  and  _140
REMARK   55  A    between atoms: _140  and  _141
REMARK   56  A    between atoms: _146  and  _147
REMARK   57  A    between atoms: _149  and  _151
REMARK   58  A    between atoms: _151  and  _152
REMARK   59  A    between atoms: _151  and  _154
REMARK   60  A    between atoms: _157  and  _159
REMARK   61  A    between atoms: _159  and  _160
REMARK   62  A    between atoms: _159  and  _162
REMARK   63  A    between atoms: _162  and  _163
REMARK   64  A    between atoms: _169  and  _170
REMARK   65  A    between atoms: _175  and  _177
REMARK   66  A    between atoms: _177  and  _178
REMARK   67  A    between atoms: _177  and  _180
REMARK   68  A    between atoms: _180  and  _181
REMARK   69  A    between atoms: _183  and  _185
REMARK   70  A    between atoms: _185  and  _186
REMARK   71  A    between atoms: _185  and  _188
REMARK   72  A    between atoms: _188  and  _189
REMARK   73  A    between atoms: _189  and  _190
REMARK   74  A    between atoms: _193  and  _195
REMARK   75  A    between atoms: _195  and  _196
REMARK   76  A    between atoms: _195  and  _198
REMARK   77  A    between atoms: _198  and  _199
REMARK   78  A    between atoms: _204  and  _205
REMARK   79  A    between atoms: _207  and  _209
REMARK   80  A    between atoms: _209  and  _210
REMARK   81  A    between atoms: _209  and  _212
REMARK   82  A    between atoms: _212  and  _213
REMARK   83  A    between atoms: _218  and  _220
REMARK   84  A    between atoms: _220  and  _221
REMARK   85  A    between atoms: _220  and  _223
REMARK   86  A    between atoms: _223  and  _224
REMARK   87  A    between atoms: _229  and  _231
REMARK   88  A    between atoms: _231  and  _232
REMARK   89  A    between atoms: _231  and  _234
REMARK   90  A    between atoms: _234  and  _235
REMARK   91  A    between atoms: _235  and  _236
REMARK   92  A    between atoms: _238  and  _240
REMARK   93  A    between atoms: _240  and  _241
REMARK   94  A    between atoms: _240  and  _243
REMARK   95  A    between atoms: _243  and  _244
REMARK   96  A    between atoms: _249  and  _250
REMARK   97  A    between atoms: _252  and  _254
REMARK   98  A    between atoms: _254  and  _255
REMARK   99  A    between atoms: _254  and  _257
REMARK  100  A    between atoms: _257  and  _258
REMARK  101  A    between atoms: _261  and  _263
REMARK  102  A    between atoms: _263  and  _264
REMARK  103  A    between atoms: _263  and  _266
REMARK  104  A    between atoms: _266  and  _267
REMARK  105  A    between atoms: _267  and  _484
REMARK  106  A    between atoms: _268  and  _270
REMARK  107  A    between atoms: _270  and  _271
REMARK  108  A    between atoms: _270  and  _273
REMARK  109  A    between atoms: _273  and  _274
REMARK  110  A    between atoms: _277  and  _279
REMARK  111  A    between atoms: _279  and  _280
REMARK  112  A    between atoms: _279  and  _282
REMARK  113  A    between atoms: _282  and  _283
REMARK  114  A    between atoms: _288  and  _289
REMARK  115  A    between atoms: _291  and  _293
REMARK  116  A    between atoms: _293  and  _294
REMARK  117  A    between atoms: _293  and  _296
REMARK  118  A    between atoms: _296  and  _297
REMARK  119  A    between atoms: _302  and  _303
REMARK  120  A    between atoms: _305  and  _307
REMARK  121  A    between atoms: _307  and  _308
REMARK  122  A    between atoms: _307  and  _310
REMARK  123  A    between atoms: _310  and  _311
REMARK  124  A    between atoms: _311  and  _312
REMARK  125  A    between atoms: _315  and  _317
REMARK  126  A    between atoms: _317  and  _318
REMARK  127  A    between atoms: _317  and  _320
REMARK  128  A    between atoms: _320  and  _321
REMARK  129  A    between atoms: _326  and  _327
REMARK  130  A    between atoms: _329  and  _331
REMARK  131  A    between atoms: _331  and  _332
REMARK  132  A    between atoms: _331  and  _334
REMARK  133  A    between atoms: _334  and  _335
REMARK  134  A    between atoms: _340  and  _342
REMARK  135  A    between atoms: _342  and  _343
REMARK  136  A    between atoms: _342  and  _345
REMARK  137  A    between atoms: _345  and  _346
REMARK  138  A    between atoms: _349  and  _351
REMARK  139  A    between atoms: _351  and  _352
REMARK  140  A    between atoms: _351  and  _354
REMARK  141  A    between atoms: _354  and  _355
REMARK  142  A    between atoms: _360  and  _362
REMARK  143  A    between atoms: _362  and  _363
REMARK  144  A    between atoms: _362  and  _365
REMARK  145  A    between atoms: _365  and  _366
REMARK  146  A    between atoms: _376  and  _378
REMARK  147  A    between atoms: _378  and  _379
REMARK  148  A    between atoms: _378  and  _381
REMARK  149  A    between atoms: _381  and  _382
REMARK  150  A    between atoms: _388  and  _390
REMARK  151  A    between atoms: _390  and  _391
REMARK  152  A    between atoms: _390  and  _393
REMARK  153  A    between atoms: _393  and  _394
REMARK  154  A    between atoms: _397  and  _399
REMARK  155  A    between atoms: _399  and  _400
REMARK  156  A    between atoms: _399  and  _402
REMARK  157  A    between atoms: _402  and  _403
REMARK  158  A    between atoms: _406  and  _408
REMARK  159  A    between atoms: _408  and  _409
REMARK  160  A    between atoms: _408  and  _411
REMARK  161  A    between atoms: _411  and  _412
REMARK  162  A    between atoms: _412  and  _413
REMARK  163  A    between atoms: _413  and  _414
REMARK  164  A    between atoms: _423  and  _425
REMARK  165  A    between atoms: _425  and  _426
REMARK  166  A    between atoms: _425  and  _428
REMARK  167  A    between atoms: _428  and  _429
REMARK  168  A    between atoms: _434  and  _436
REMARK  169  A    between atoms: _436  and  _437
REMARK  170  A    between atoms: _436  and  _439
REMARK  171  A    between atoms: _439  and  _440
REMARK  172  A    between atoms: _441  and  _442
REMARK  173  A    between atoms: _451  and  _453
REMARK  174  A    between atoms: _453  and  _454
REMARK  175  A    between atoms: _457  and  _459
REMARK  176  A    between atoms: _459  and  _460
REMARK  177  A    between atoms: _462  and  _464
REMARK  178  A    between atoms: _464  and  _465
REMARK  179  A    between atoms: _464  and  _467
REMARK  180  A    between atoms: _467  and  _468
REMARK  181  A    between atoms: _478  and  _480
REMARK  182  A    between atoms: _480  and  _481
REMARK  183  A    between atoms: _480  and  _483
REMARK  184  A    between atoms: _483  and  _484
REMARK  185  A    between atoms: _485  and  _487
REMARK  186  A    between atoms: _487  and  _488
REMARK  187  A    between atoms: _491  and  _493
REMARK  188  A    between atoms: _493  and  _494
REMARK  189  A    between atoms: _493  and  _496
REMARK  190  A    between atoms: _496  and  _497
REMARK  191  A    between atoms: _500  and  _502
REMARK  192  A    between atoms: _502  and  _503
REMARK  193  A    between atoms: _502  and  _505
REMARK  194  A    between atoms: _505  and  _506
REMARK  195  A    between atoms: _511  and  _512
REMARK  196  A    between atoms: _514  and  _516
REMARK  197  A    between atoms: _516  and  _517
REMARK  198  A    between atoms: _516  and  _519
REMARK  199  A    between atoms: _519  and  _520
REMARK  200  A    between atoms: _522  and  _524
REMARK  201  A    between atoms: _524  and  _525
REMARK  202  A    between atoms: _524  and  _527
REMARK  203  A    between atoms: _527  and  _528
REMARK  204  A    between atoms: _534  and  _536
REMARK  205  A    between atoms: _536  and  _537
REMARK  206  A    between atoms: _536  and  _539
REMARK  207  A    between atoms: _539  and  _540
REMARK  208  A    between atoms: _543  and  _545
REMARK  209  A    between atoms: _545  and  _546
REMARK  210  A    between atoms: _545  and  _548
REMARK  211  A    between atoms: _548  and  _549
REMARK  212  A    between atoms: _551  and  _553
REMARK  213  A    between atoms: _553  and  _554
REMARK  214  A    between atoms: _553  and  _556
REMARK  215  A    between atoms: _556  and  _557
REMARK  216  A    between atoms: _562  and  _564
REMARK  217  A    between atoms: _564  and  _565
REMARK  218  A    between atoms: _564  and  _567
REMARK  219  A    between atoms: _567  and  _568
REMARK  220  A    between atoms: _571  and  _573
REMARK  221  A    between atoms: _573  and  _574
REMARK  222  A    between atoms: _573  and  _576
REMARK  223  A    between atoms: _576  and  _577
REMARK  224  A    between atoms: _582  and  _583
REMARK  225  A    between atoms: _585  and  _587
REMARK  226  A    between atoms: _587  and  _588
REMARK  227  A    between atoms: _587  and  _590
REMARK  228  A    between atoms: _590  and  _591
REMARK  229  A    between atoms: _596  and  _597
REMARK  230  A    between atoms: _599  and  _601
REMARK  231  A    between atoms: _601  and  _602
REMARK  232  A    between atoms: _601  and  _604
REMARK  233  A    between atoms: _607  and  _609
REMARK  234  A    between atoms: _609  and  _610
REMARK  235  A    between atoms: _609  and  _612
REMARK  236  A    between atoms: _612  and  _613
REMARK  237  A    between atoms: _618  and  _620
REMARK  238  A    between atoms: _620  and  _621
REMARK  239  A    between atoms: _624  and  _626
REMARK  240  A    between atoms: _626  and  _627
REMARK  241  A    between atoms: _626  and  _629
REMARK  242  A    between atoms: _629  and  _630
REMARK  243  A    between atoms: _630  and  _631
REMARK  244  A    between atoms: _631  and  _632
REMARK  245  A    between atoms: _641  and  _643
REMARK  246  A    between atoms: _643  and  _644
REMARK  247  A    between atoms: _643  and  _646
REMARK  248  A    between atoms: _646  and  _647
REMARK  249  A    between atoms: _650  and  _652
REMARK  250  A    between atoms: _652  and  _653
REMARK  251  A    between atoms: _652  and  _655
REMARK  252  A    between atoms: _655  and  _656
REMARK  253  A    between atoms: _659  and  _661
REMARK  254  A    between atoms: _661  and  _662
REMARK  255  A    between atoms: _661  and  _664
REMARK  256  A    between atoms: _664  and  _665
REMARK                            x       y       z     vdW  Elec       q    Type
REMARK                         _______ _______ _______ _____ _____    ______ ____
ROOT
ATOM      1  O   HOH     1      10.627  28.189  16.108  0.00  0.00    +0.000 OA
ENDROOT
TORSDOF 0
REMARK  Name = ../refined-set-2016/1b6h/1b6h_pocket.pdb
REMARK  256 active torsions:
REMARK  status: ('A' for Active; 'I' for Inactive)
REMARK    1  A    between atoms: _1  and  _3
REMARK    2  A    between atoms: _3  and  _4
REMARK    3  A    between atoms: _3  and  _6
REMARK    4  A    between atoms: _6  and  _7
REMARK    5  A    between atoms: _12  and  _14
REMARK    6  A    between atoms: _14  and  _15
REMARK    7  A    between atoms: _17  and  _19
REMARK    8  A    between atoms: _19  and  _20
REMARK    9  A    between atoms: _19  and  _22
REMARK   10  A    between atoms: _22  and  _23
REMARK   11  A    between atoms: _23  and  _24
REMARK   12  A    between atoms: _29  and  _31
REMARK   13  A    between atoms: _31  and  _32
REMARK   14  A    between atoms: _31  and  _34
REMARK   15  A    between atoms: _34  and  _35
REMARK   16  A    between atoms: _38  and  _40
REMARK   17  A    between atoms: _40  and  _41
REMARK   18  A    between atoms: _40  and  _43
REMARK   19  A    between atoms: _43  and  _44
REMARK   20  A    between atoms: _44  and  _45
REMARK   21  A    between atoms: _48  and  _50
REMARK   22  A    between atoms: _50  and  _51
REMARK   23  A    between atoms: _53  and  _55
REMARK   24  A    between atoms: _55  and  _56
REMARK   25  A    between atoms: _55  and  _58
REMARK   26  A    between atoms: _62  and  _63
REMARK   27  A    between atoms: _68  and  _70
REMARK   28  A    between atoms: _70  and  _71
REMARK   29  A    between atoms: _70  and  _73
REMARK   30  A    between atoms: _73  and  _74
REMARK   31  A    between atoms: _74  and  _75
REMARK   32  A    between atoms: _78  and  _80
REMARK   33  A    between atoms: _80  and  _81
REMARK   34  A    between atoms: _80  and  _83
REMARK   35  A    between atoms: _83  and  _84
REMARK   36  A    between atoms: _86  and  _88
REMARK   37  A    between atoms: _88  and  _89
REMARK   38  A    between atoms: _88  and  _91
REMARK   39  A    between atoms: _91  and  _92
REMARK   40  A    between atoms: _97  and  _99
REMARK   41  A    between atoms: _99  and  _100
REMARK   42  A    between atoms: _99  and  _102
REMARK   43  A    between atoms: _102  and  _103
REMARK   44  A    between atoms: _103  and  _104
REMARK   45  A    between atoms: _104  and  _105
REMARK   46  A    between atoms: _115  and  _116
REMARK   47  A    between atoms: _121  and  _123
REMARK   48  A    between atoms: _123  and  _124
REMARK   49  A    between atoms: _123  and  _126
REMARK   50  A    between atoms: _126  and  _127
REMARK   51  A    between atoms: _132  and  _133
REMARK   52  A    between atoms: _135  and  _137
REMARK   53  A    between atoms: _137  and  _138
REMARK   54  A    between atoms: _137  and  _140
REMARK   55  A    between atoms: _140  and  _141
REMARK   56  A    between atoms: _146  and  _147
REMARK   57  A    between atoms: _149  and  _151
REMARK   58  A    between atoms: _151  and  _152
REMARK   59  A    between atoms: _151  and  _154
REMARK   60  A    between atoms: _157  and  _159
REMARK   61  A    between atoms: _159  and  _160
REMARK   62  A    between atoms: _159  and  _162
REMARK   63  A    between atoms: _162  and  _163
REMARK   64  A    between atoms: _169  and  _170
REMARK   65  A    between atoms: _175  and  _177
REMARK   66  A    between atoms: _177  and  _178
REMARK   67  A    between atoms: _177  and  _180
REMARK   68  A    between atoms: _180  and  _181
REMARK   69  A    between atoms: _183  and  _185
REMARK   70  A    between atoms: _185  and  _186
REMARK   71  A    between atoms: _185  and  _188
REMARK   72  A    between atoms: _188  and  _189
REMARK   73  A    between atoms: _189  and  _190
REMARK   74  A    between atoms: _193  and  _195
REMARK   75  A    between atoms: _195  and  _196
REMARK   76  A    between atoms: _195  and  _198
REMARK   77  A    between atoms: _198  and  _199
REMARK   78  A    between atoms: _204  and  _205
REMARK   79  A    between atoms: _207  and  _209
REMARK   80  A    between atoms: _209  and  _210
REMARK   81  A    between atoms: _209  and  _212
REMARK   82  A    between atoms: _212  and  _213
REMARK   83  A    between atoms: _218  and  _220
REMARK   84  A    between atoms: _220  and  _221
REMARK   85  A    between atoms: _220  and  _223
REMARK   86  A    between atoms: _223  and  _224
REMARK   87  A    between atoms: _229  and  _231
REMARK   88  A    between atoms: _231  and  _232
REMARK   89  A    between atoms: _231  and  _234
REMARK   90  A    between atoms: _234  and  _235
REMARK   91  A    between atoms: _235  and  _236
REMARK   92  A    between atoms: _238  and  _240
REMARK   93  A    between atoms: _240  and  _241
REMARK   94  A    between atoms: _240  and  _243
REMARK   95  A    between atoms: _243  and  _244
REMARK   96  A    between atoms: _249  and  _250
REMARK   97  A    between atoms: _252  and  _254
REMARK   98  A    between atoms: _254  and  _255
REMARK   99  A    between atoms: _254  and  _257
REMARK  100  A    between atoms: _257  and  _258
REMARK  101  A    between atoms: _261  and  _263
REMARK  102  A    between atoms: _263  and  _264
REMARK  103  A    between atoms: _263  and  _266
REMARK  104  A    between atoms: _266  and  _267
REMARK  105  A    between atoms: _267  and  _484
REMARK  106  A    between atoms: _268  and  _270
REMARK  107  A    between atoms: _270  and  _271
REMARK  108  A    between atoms: _270  and  _273
REMARK  109  A    between atoms: _273  and  _274
REMARK  110  A    between atoms: _277  and  _279
REMARK  111  A    between atoms: _279  and  _280
REMARK  112  A    between atoms: _279  and  _282
REMARK  113  A    between atoms: _282  and  _283
REMARK  114  A    between atoms: _288  and  _289
REMARK  115  A    between atoms: _291  and  _293
REMARK  116  A    between atoms: _293  and  _294
REMARK  117  A    between atoms: _293  and  _296
REMARK  118  A    between atoms: _296  and  _297
REMARK  119  A    between atoms: _302  and  _303
REMARK  120  A    between atoms: _305  and  _307
REMARK  121  A    between atoms: _307  and  _308
REMARK  122  A    between atoms: _307  and  _310
REMARK  123  A    between atoms: _310  and  _311
REMARK  124  A    between atoms: _311  and  _312
REMARK  125  A    between atoms: _315  and  _317
REMARK  126  A    between atoms: _317  and  _318
REMARK  127  A    between atoms: _317  and  _320
REMARK  128  A    between atoms: _320  and  _321
REMARK  129  A    between atoms: _326  and  _327
REMARK  130  A    between atoms: _329  and  _331
REMARK  131  A    between atoms: _331  and  _332
REMARK  132  A    between atoms: _331  and  _334
REMARK  133  A    between atoms: _334  and  _335
REMARK  134  A    between atoms: _340  and  _342
REMARK  135  A    between atoms: _342  and  _343
REMARK  136  A    between atoms: _342  and  _345
REMARK  137  A    between atoms: _345  and  _346
REMARK  138  A    between atoms: _349  and  _351
REMARK  139  A    between atoms: _351  and  _352
REMARK  140  A    between atoms: _351  and  _354
REMARK  141  A    between atoms: _354  and  _355
REMARK  142  A    between atoms: _360  and  _362
REMARK  143  A    between atoms: _362  and  _363
REMARK  144  A    between atoms: _362  and  _365
REMARK  145  A    between atoms: _365  and  _366
REMARK  146  A    between atoms: _376  and  _378
REMARK  147  A    between atoms: _378  and  _379
REMARK  148  A    between atoms: _378  and  _381
REMARK  149  A    between atoms: _381  and  _382
REMARK  150  A    between atoms: _388  and  _390
REMARK  151  A    between atoms: _390  and  _391
REMARK  152  A    between atoms: _390  and  _393
REMARK  153  A    between atoms: _393  and  _394
REMARK  154  A    between atoms: _397  and  _399
REMARK  155  A    between atoms: _399  and  _400
REMARK  156  A    between atoms: _399  and  _402
REMARK  157  A    between atoms: _402  and  _403
REMARK  158  A    between atoms: _406  and  _408
REMARK  159  A    between atoms: _408  and  _409
REMARK  160  A    between atoms: _408  and  _411
REMARK  161  A    between atoms: _411  and  _412
REMARK  162  A    between atoms: _412  and  _413
REMARK  163  A    between atoms: _413  and  _414
REMARK  164  A    between atoms: _423  and  _425
REMARK  165  A    between atoms: _425  and  _426
REMARK  166  A    between atoms: _425  and  _428
REMARK  167  A    between atoms: _428  and  _429
REMARK  168  A    between atoms: _434  and  _436
REMARK  169  A    between atoms: _436  and  _437
REMARK  170  A    between atoms: _436  and  _439
REMARK  171  A    between atoms: _439  and  _440
REMARK  172  A    between atoms: _441  and  _442
REMARK  173  A    between atoms: _451  and  _453
REMARK  174  A    between atoms: _453  and  _454
REMARK  175  A    between atoms: _457  and  _459
REMARK  176  A    between atoms: _459  and  _460
REMARK  177  A    between atoms: _462  and  _464
REMARK  178  A    between atoms: _464  and  _465
REMARK  179  A    between atoms: _464  and  _467
REMARK  180  A    between atoms: _467  and  _468
REMARK  181  A    between atoms: _478  and  _480
REMARK  182  A    between atoms: _480  and  _481
REMARK  183  A    between atoms: _480  and  _483
REMARK  184  A    between atoms: _483  and  _484
REMARK  185  A    between atoms: _485  and  _487
REMARK  186  A    between atoms: _487  and  _488
REMARK  187  A    between atoms: _491  and  _493
REMARK  188  A    between atoms: _493  and  _494
REMARK  189  A    between atoms: _493  and  _496
REMARK  190  A    between atoms: _496  and  _497
REMARK  191  A    between atoms: _500  and  _502
REMARK  192  A    between atoms: _502  and  _503
REMARK  193  A    between atoms: _502  and  _505
REMARK  194  A    between atoms: _505  and  _506
REMARK  195  A    between atoms: _511  and  _512
REMARK  196  A    between atoms: _514  and  _516
REMARK  197  A    between atoms: _516  and  _517
REMARK  198  A    between atoms: _516  and  _519
REMARK  199  A    between atoms: _519  and  _520
REMARK  200  A    between atoms: _522  and  _524
REMARK  201  A    between atoms: _524  and  _525
REMARK  202  A    between atoms: _524  and  _527
REMARK  203  A    between atoms: _527  and  _528
REMARK  204  A    between atoms: _534  and  _536
REMARK  205  A    between atoms: _536  and  _537
REMARK  206  A    between atoms: _536  and  _539
REMARK  207  A    between atoms: _539  and  _540
REMARK  208  A    between atoms: _543  and  _545
REMARK  209  A    between atoms: _545  and  _546
REMARK  210  A    between atoms: _545  and  _548
REMARK  211  A    between atoms: _548  and  _549
REMARK  212  A    between atoms: _551  and  _553
REMARK  213  A    between atoms: _553  and  _554
REMARK  214  A    between atoms: _553  and  _556
REMARK  215  A    between atoms: _556  and  _557
REMARK  216  A    between atoms: _562  and  _564
REMARK  217  A    between atoms: _564  and  _565
REMARK  218  A    between atoms: _564  and  _567
REMARK  219  A    between atoms: _567  and  _568
REMARK  220  A    between atoms: _571  and  _573
REMARK  221  A    between atoms: _573  and  _574
REMARK  222  A    between atoms: _573  and  _576
REMARK  223  A    between atoms: _576  and  _577
REMARK  224  A    between atoms: _582  and  _583
REMARK  225  A    between atoms: _585  and  _587
REMARK  226  A    between atoms: _587  and  _588
REMARK  227  A    between atoms: _587  and  _590
REMARK  228  A    between atoms: _590  and  _591
REMARK  229  A    between atoms: _596  and  _597
REMARK  230  A    between atoms: _599  and  _601
REMARK  231  A    between atoms: _601  and  _602
REMARK  232  A    between atoms: _601  and  _604
REMARK  233  A    between atoms: _607  and  _609
REMARK  234  A    between atoms: _609  and  _610
REMARK  235  A    between atoms: _609  and  _612
REMARK  236  A    between atoms: _612  and  _613
REMARK  237  A    between atoms: _618  and  _620
REMARK  238  A    between atoms: _620  and  _621
REMARK  239  A    between atoms: _624  and  _626
REMARK  240  A    between atoms: _626  and  _627
REMARK  241  A    between atoms: _626  and  _629
REMARK  242  A    between atoms: _629  and  _630
REMARK  243  A    between atoms: _630  and  _631
REMARK  244  A    between atoms: _631  and  _632
REMARK  245  A    between atoms: _641  and  _643
REMARK  246  A    between atoms: _643  and  _644
REMARK  247  A    between atoms: _643  and  _646
REMARK  248  A    between atoms: _646  and  _647
REMARK  249  A    between atoms: _650  and  _652
REMARK  250  A    between atoms: _652  and  _653
REMARK  251  A    between atoms: _652  and  _655
REMARK  252  A    between atoms: _655  and  _656
REMARK  253  A    between atoms: _659  and  _661
REMARK  254  A    between atoms: _661  and  _662
REMARK  255  A    between atoms: _661  and  _664
REMARK  256  A    between atoms: _664  and  _665
REMARK                            x       y       z     vdW  Elec       q    Type
REMARK                         _______ _______ _______ _____ _____    ______ ____
ROOT
ATOM      1  O   HOH     1      -7.302  23.817  12.254  0.00  0.00    +0.000 OA
ENDROOT
TORSDOF 0
REMARK  Name = ../refined-set-2016/1b6h/1b6h_pocket.pdb
REMARK  256 active torsions:
REMARK  status: ('A' for Active; 'I' for Inactive)
REMARK    1  A    between atoms: _1  and  _3
REMARK    2  A    between atoms: _3  and  _4
REMARK    3  A    between atoms: _3  and  _6
REMARK    4  A    between atoms: _6  and  _7
REMARK    5  A    between atoms: _12  and  _14
REMARK    6  A    between atoms: _14  and  _15
REMARK    7  A    between atoms: _17  and  _19
REMARK    8  A    between atoms: _19  and  _20
REMARK    9  A    between atoms: _19  and  _22
REMARK   10  A    between atoms: _22  and  _23
REMARK   11  A    between atoms: _23  and  _24
REMARK   12  A    between atoms: _29  and  _31
REMARK   13  A    between atoms: _31  and  _32
REMARK   14  A    between atoms: _31  and  _34
REMARK   15  A    between atoms: _34  and  _35
REMARK   16  A    between atoms: _38  and  _40
REMARK   17  A    between atoms: _40  and  _41
REMARK   18  A    between atoms: _40  and  _43
REMARK   19  A    between atoms: _43  and  _44
REMARK   20  A    between atoms: _44  and  _45
REMARK   21  A    between atoms: _48  and  _50
REMARK   22  A    between atoms: _50  and  _51
REMARK   23  A    between atoms: _53  and  _55
REMARK   24  A    between atoms: _55  and  _56
REMARK   25  A    between atoms: _55  and  _58
REMARK   26  A    between atoms: _62  and  _63
REMARK   27  A    between atoms: _68  and  _70
REMARK   28  A    between atoms: _70  and  _71
REMARK   29  A    between atoms: _70  and  _73
REMARK   30  A    between atoms: _73  and  _74
REMARK   31  A    between atoms: _74  and  _75
REMARK   32  A    between atoms: _78  and  _80
REMARK   33  A    between atoms: _80  and  _81
REMARK   34  A    between atoms: _80  and  _83
REMARK   35  A    between atoms: _83  and  _84
REMARK   36  A    between atoms: _86  and  _88
REMARK   37  A    between atoms: _88  and  _89
REMARK   38  A    between atoms: _88  and  _91
REMARK   39  A    between atoms: _91  and  _92
REMARK   40  A    between atoms: _97  and  _99
REMARK   41  A    between atoms: _99  and  _100
REMARK   42  A    between atoms: _99  and  _102
REMARK   43  A    between atoms: _102  and  _103
REMARK   44  A    between atoms: _103  and  _104
REMARK   45  A    between atoms: _104  and  _105
REMARK   46  A    between atoms: _115  and  _116
REMARK   47  A    between atoms: _121  and  _123
REMARK   48  A    between atoms: _123  and  _124
REMARK   49  A    between atoms: _123  and  _126
REMARK   50  A    between atoms: _126  and  _127
REMARK   51  A    between atoms: _132  and  _133
REMARK   52  A    between atoms: _135  and  _137
REMARK   53  A    between atoms: _137  and  _138
REMARK   54  A    between atoms: _137  and  _140
REMARK   55  A    between atoms: _140  and  _141
REMARK   56  A    between atoms: _146  and  _147
REMARK   57  A    between atoms: _149  and  _151
REMARK   58  A    between atoms: _151  and  _152
REMARK   59  A    between atoms: _151  and  _154
REMARK   60  A    between atoms: _157  and  _159
REMARK   61  A    between atoms: _159  and  _160
REMARK   62  A    between atoms: _159  and  _162
REMARK   63  A    between atoms: _162  and  _163
REMARK   64  A    between atoms: _169  and  _170
REMARK   65  A    between atoms: _175  and  _177
REMARK   66  A    between atoms: _177  and  _178
REMARK   67  A    between atoms: _177  and  _180
REMARK   68  A    between atoms: _180  and  _181
REMARK   69  A    between atoms: _183  and  _185
REMARK   70  A    between atoms: _185  and  _186
REMARK   71  A    between atoms: _185  and  _188
REMARK   72  A    between atoms: _188  and  _189
REMARK   73  A    between atoms: _189  and  _190
REMARK   74  A    between atoms: _193  and  _195
REMARK   75  A    between atoms: _195  and  _196
REMARK   76  A    between atoms: _195  and  _198
REMARK   77  A    between atoms: _198  and  _199
REMARK   78  A    between atoms: _204  and  _205
REMARK   79  A    between atoms: _207  and  _209
REMARK   80  A    between atoms: _209  and  _210
REMARK   81  A    between atoms: _209  and  _212
REMARK   82  A    between atoms: _212  and  _213
REMARK   83  A    between atoms: _218  and  _220
REMARK   84  A    between atoms: _220  and  _221
REMARK   85  A    between atoms: _220  and  _223
REMARK   86  A    between atoms: _223  and  _224
REMARK   87  A    between atoms: _229  and  _231
REMARK   88  A    between atoms: _231  and  _232
REMARK   89  A    between atoms: _231  and  _234
REMARK   90  A    between atoms: _234  and  _235
REMARK   91  A    between atoms: _235  and  _236
REMARK   92  A    between atoms: _238  and  _240
REMARK   93  A    between atoms: _240  and  _241
REMARK   94  A    between atoms: _240  and  _243
REMARK   95  A    between atoms: _243  and  _244
REMARK   96  A    between atoms: _249  and  _250
REMARK   97  A    between atoms: _252  and  _254
REMARK   98  A    between atoms: _254  and  _255
REMARK   99  A    between atoms: _254  and  _257
REMARK  100  A    between atoms: _257  and  _258
REMARK  101  A    between atoms: _261  and  _263
REMARK  102  A    between atoms: _263  and  _264
REMARK  103  A    between atoms: _263  and  _266
REMARK  104  A    between atoms: _266  and  _267
REMARK  105  A    between atoms: _267  and  _484
REMARK  106  A    between atoms: _268  and  _270
REMARK  107  A    between atoms: _270  and  _271
REMARK  108  A    between atoms: _270  and  _273
REMARK  109  A    between atoms: _273  and  _274
REMARK  110  A    between atoms: _277  and  _279
REMARK  111  A    between atoms: _279  and  _280
REMARK  112  A    between atoms: _279  and  _282
REMARK  113  A    between atoms: _282  and  _283
REMARK  114  A    between atoms: _288  and  _289
REMARK  115  A    between atoms: _291  and  _293
REMARK  116  A    between atoms: _293  and  _294
REMARK  117  A    between atoms: _293  and  _296
REMARK  118  A    between atoms: _296  and  _297
REMARK  119  A    between atoms: _302  and  _303
REMARK  120  A    between atoms: _305  and  _307
REMARK  121  A    between atoms: _307  and  _308
REMARK  122  A    between atoms: _307  and  _310
REMARK  123  A    between atoms: _310  and  _311
REMARK  124  A    between atoms: _311  and  _312
REMARK  125  A    between atoms: _315  and  _317
REMARK  126  A    between atoms: _317  and  _318
REMARK  127  A    between atoms: _317  and  _320
REMARK  128  A    between atoms: _320  and  _321
REMARK  129  A    between atoms: _326  and  _327
REMARK  130  A    between atoms: _329  and  _331
REMARK  131  A    between atoms: _331  and  _332
REMARK  132  A    between atoms: _331  and  _334
REMARK  133  A    between atoms: _334  and  _335
REMARK  134  A    between atoms: _340  and  _342
REMARK  135  A    between atoms: _342  and  _343
REMARK  136  A    between atoms: _342  and  _345
REMARK  137  A    between atoms: _345  and  _346
REMARK  138  A    between atoms: _349  and  _351
REMARK  139  A    between atoms: _351  and  _352
REMARK  140  A    between atoms: _351  and  _354
REMARK  141  A    between atoms: _354  and  _355
REMARK  142  A    between atoms: _360  and  _362
REMARK  143  A    between atoms: _362  and  _363
REMARK  144  A    between atoms: _362  and  _365
REMARK  145  A    between atoms: _365  and  _366
REMARK  146  A    between atoms: _376  and  _378
REMARK  147  A    between atoms: _378  and  _379
REMARK  148  A    between atoms: _378  and  _381
REMARK  149  A    between atoms: _381  and  _382
REMARK  150  A    between atoms: _388  and  _390
REMARK  151  A    between atoms: _390  and  _391
REMARK  152  A    between atoms: _390  and  _393
REMARK  153  A    between atoms: _393  and  _394
REMARK  154  A    between atoms: _397  and  _399
REMARK  155  A    between atoms: _399  and  _400
REMARK  156  A    between atoms: _399  and  _402
REMARK  157  A    between atoms: _402  and  _403
REMARK  158  A    between atoms: _406  and  _408
REMARK  159  A    between atoms: _408  and  _409
REMARK  160  A    between atoms: _408  and  _411
REMARK  161  A    between atoms: _411  and  _412
REMARK  162  A    between atoms: _412  and  _413
REMARK  163  A    between atoms: _413  and  _414
REMARK  164  A    between atoms: _423  and  _425
REMARK  165  A    between atoms: _425  and  _426
REMARK  166  A    between atoms: _425  and  _428
REMARK  167  A    between atoms: _428  and  _429
REMARK  168  A    between atoms: _434  and  _436
REMARK  169  A    between atoms: _436  and  _437
REMARK  170  A    between atoms: _436  and  _439
REMARK  171  A    between atoms: _439  and  _440
REMARK  172  A    between atoms: _441  and  _442
REMARK  173  A    between atoms: _451  and  _453
REMARK  174  A    between atoms: _453  and  _454
REMARK  175  A    between atoms: _457  and  _459
REMARK  176  A    between atoms: _459  and  _460
REMARK  177  A    between atoms: _462  and  _464
REMARK  178  A    between atoms: _464  and  _465
REMARK  179  A    between atoms: _464  and  _467
REMARK  180  A    between atoms: _467  and  _468
REMARK  181  A    between atoms: _478  and  _480
REMARK  182  A    between atoms: _480  and  _481
REMARK  183  A    between atoms: _480  and  _483
REMARK  184  A    between atoms: _483  and  _484
REMARK  185  A    between atoms: _485  and  _487
REMARK  186  A    between atoms: _487  and  _488
REMARK  187  A    between atoms: _491  and  _493
REMARK  188  A    between atoms: _493  and  _494
REMARK  189  A    between atoms: _493  and  _496
REMARK  190  A    between atoms: _496  and  _497
REMARK  191  A    between atoms: _500  and  _502
REMARK  192  A    between atoms: _502  and  _503
REMARK  193  A    between atoms: _502  and  _505
REMARK  194  A    between atoms: _505  and  _506
REMARK  195  A    between atoms: _511  and  _512
REMARK  196  A    between atoms: _514  and  _516
REMARK  197  A    between atoms: _516  and  _517
REMARK  198  A    between atoms: _516  and  _519
REMARK  199  A    between atoms: _519  and  _520
REMARK  200  A    between atoms: _522  and  _524
REMARK  201  A    between atoms: _524  and  _525
REMARK  202  A    between atoms: _524  and  _527
REMARK  203  A    between atoms: _527  and  _528
REMARK  204  A    between atoms: _534  and  _536
REMARK  205  A    between atoms: _536  and  _537
REMARK  206  A    between atoms: _536  and  _539
REMARK  207  A    between atoms: _539  and  _540
REMARK  208  A    between atoms: _543  and  _545
REMARK  209  A    between atoms: _545  and  _546
REMARK  210  A    between atoms: _545  and  _548
REMARK  211  A    between atoms: _548  and  _549
REMARK  212  A    between atoms: _551  and  _553
REMARK  213  A    between atoms: _553  and  _554
REMARK  214  A    between atoms: _553  and  _556
REMARK  215  A    between atoms: _556  and  _557
REMARK  216  A    between atoms: _562  and  _564
REMARK  217  A    between atoms: _564  and  _565
REMARK  218  A    between atoms: _564  and  _567
REMARK  219  A    between atoms: _567  and  _568
REMARK  220  A    between atoms: _571  and  _573
REMARK  221  A    between atoms: _573  and  _574
REMARK  222  A    between atoms: _573  and  _576
REMARK  223  A    between atoms: _576  and  _577
REMARK  224  A    between atoms: _582  and  _583
REMARK  225  A    between atoms: _585  and  _587
REMARK  226  A    between atoms: _587  and  _588
REMARK  227  A    between atoms: _587  and  _590
REMARK  228  A    between atoms: _590  and  _591
REMARK  229  A    between atoms: _596  and  _597
REMARK  230  A    between atoms: _599  and  _601
REMARK  231  A    between atoms: _601  and  _602
REMARK  232  A    between atoms: _601  and  _604
REMARK  233  A    between atoms: _607  and  _609
REMARK  234  A    between atoms: _609  and  _610
REMARK  235  A    between atoms: _609  and  _612
REMARK  236  A    between atoms: _612  and  _613
REMARK  237  A    between atoms: _618  and  _620
REMARK  238  A    between atoms: _620  and  _621
REMARK  239  A    between atoms: _624  and  _626
REMARK  240  A    between atoms: _626  and  _627
REMARK  241  A    between atoms: _626  and  _629
REMARK  242  A    between atoms: _629  and  _630
REMARK  243  A    between atoms: _630  and  _631
REMARK  244  A    between atoms: _631  and  _632
REMARK  245  A    between atoms: _641  and  _643
REMARK  246  A    between atoms: _643  and  _644
REMARK  247  A    between atoms: _643  and  _646
REMARK  248  A    between atoms: _646  and  _647
REMARK  249  A    between atoms: _650  and  _652
REMARK  250  A    between atoms: _652  and  _653
REMARK  251  A    between atoms: _652  and  _655
REMARK  252  A    between atoms: _655  and  _656
REMARK  253  A    between atoms: _659  and  _661
REMARK  254  A    between atoms: _661  and  _662
REMARK  255  A    between atoms: _661  and  _664
REMARK  256  A    between atoms: _664  and  _665
REMARK                            x       y       z     vdW  Elec       q    Type
REMARK                         _______ _______ _______ _____ _____    ______ ____
ROOT
ATOM      1  O   HOH     1       3.752  12.833  11.926  0.00  0.00    +0.000 OA
ENDROOT
TORSDOF 0
REMARK  Name = ../refined-set-2016/1b6h/1b6h_pocket.pdb
REMARK  256 active torsions:
REMARK  status: ('A' for Active; 'I' for Inactive)
REMARK    1  A    between atoms: _1  and  _3
REMARK    2  A    between atoms: _3  and  _4
REMARK    3  A    between atoms: _3  and  _6
REMARK    4  A    between atoms: _6  and  _7
REMARK    5  A    between atoms: _12  and  _14
REMARK    6  A    between atoms: _14  and  _15
REMARK    7  A    between atoms: _17  and  _19
REMARK    8  A    between atoms: _19  and  _20
REMARK    9  A    between atoms: _19  and  _22
REMARK   10  A    between atoms: _22  and  _23
REMARK   11  A    between atoms: _23  and  _24
REMARK   12  A    between atoms: _29  and  _31
REMARK   13  A    between atoms: _31  and  _32
REMARK   14  A    between atoms: _31  and  _34
REMARK   15  A    between atoms: _34  and  _35
REMARK   16  A    between atoms: _38  and  _40
REMARK   17  A    between atoms: _40  and  _41
REMARK   18  A    between atoms: _40  and  _43
REMARK   19  A    between atoms: _43  and  _44
REMARK   20  A    between atoms: _44  and  _45
REMARK   21  A    between atoms: _48  and  _50
REMARK   22  A    between atoms: _50  and  _51
REMARK   23  A    between atoms: _53  and  _55
REMARK   24  A    between atoms: _55  and  _56
REMARK   25  A    between atoms: _55  and  _58
REMARK   26  A    between atoms: _62  and  _63
REMARK   27  A    between atoms: _68  and  _70
REMARK   28  A    between atoms: _70  and  _71
REMARK   29  A    between atoms: _70  and  _73
REMARK   30  A    between atoms: _73  and  _74
REMARK   31  A    between atoms: _74  and  _75
REMARK   32  A    between atoms: _78  and  _80
REMARK   33  A    between atoms: _80  and  _81
REMARK   34  A    between atoms: _80  and  _83
REMARK   35  A    between atoms: _83  and  _84
REMARK   36  A    between atoms: _86  and  _88
REMARK   37  A    between atoms: _88  and  _89
REMARK   38  A    between atoms: _88  and  _91
REMARK   39  A    between atoms: _91  and  _92
REMARK   40  A    between atoms: _97  and  _99
REMARK   41  A    between atoms: _99  and  _100
REMARK   42  A    between atoms: _99  and  _102
REMARK   43  A    between atoms: _102  and  _103
REMARK   44  A    between atoms: _103  and  _104
REMARK   45  A    between atoms: _104  and  _105
REMARK   46  A    between atoms: _115  and  _116
REMARK   47  A    between atoms: _121  and  _123
REMARK   48  A    between atoms: _123  and  _124
REMARK   49  A    between atoms: _123  and  _126
REMARK   50  A    between atoms: _126  and  _127
REMARK   51  A    between atoms: _132  and  _133
REMARK   52  A    between atoms: _135  and  _137
REMARK   53  A    between atoms: _137  and  _138
REMARK   54  A    between atoms: _137  and  _140
REMARK   55  A    between atoms: _140  and  _141
REMARK   56  A    between atoms: _146  and  _147
REMARK   57  A    between atoms: _149  and  _151
REMARK   58  A    between atoms: _151  and  _152
REMARK   59  A    between atoms: _151  and  _154
REMARK   60  A    between atoms: _157  and  _159
REMARK   61  A    between atoms: _159  and  _160
REMARK   62  A    between atoms: _159  and  _162
REMARK   63  A    between atoms: _162  and  _163
REMARK   64  A    between atoms: _169  and  _170
REMARK   65  A    between atoms: _175  and  _177
REMARK   66  A    between atoms: _177  and  _178
REMARK   67  A    between atoms: _177  and  _180
REMARK   68  A    between atoms: _180  and  _181
REMARK   69  A    between atoms: _183  and  _185
REMARK   70  A    between atoms: _185  and  _186
REMARK   71  A    between atoms: _185  and  _188
REMARK   72  A    between atoms: _188  and  _189
REMARK   73  A    between atoms: _189  and  _190
REMARK   74  A    between atoms: _193  and  _195
REMARK   75  A    between atoms: _195  and  _196
REMARK   76  A    between atoms: _195  and  _198
REMARK   77  A    between atoms: _198  and  _199
REMARK   78  A    between atoms: _204  and  _205
REMARK   79  A    between atoms: _207  and  _209
REMARK   80  A    between atoms: _209  and  _210
REMARK   81  A    between atoms: _209  and  _212
REMARK   82  A    between atoms: _212  and  _213
REMARK   83  A    between atoms: _218  and  _220
REMARK   84  A    between atoms: _220  and  _221
REMARK   85  A    between atoms: _220  and  _223
REMARK   86  A    between atoms: _223  and  _224
REMARK   87  A    between atoms: _229  and  _231
REMARK   88  A    between atoms: _231  and  _232
REMARK   89  A    between atoms: _231  and  _234
REMARK   90  A    between atoms: _234  and  _235
REMARK   91  A    between atoms: _235  and  _236
REMARK   92  A    between atoms: _238  and  _240
REMARK   93  A    between atoms: _240  and  _241
REMARK   94  A    between atoms: _240  and  _243
REMARK   95  A    between atoms: _243  and  _244
REMARK   96  A    between atoms: _249  and  _250
REMARK   97  A    between atoms: _252  and  _254
REMARK   98  A    between atoms: _254  and  _255
REMARK   99  A    between atoms: _254  and  _257
REMARK  100  A    between atoms: _257  and  _258
REMARK  101  A    between atoms: _261  and  _263
REMARK  102  A    between atoms: _263  and  _264
REMARK  103  A    between atoms: _263  and  _266
REMARK  104  A    between atoms: _266  and  _267
REMARK  105  A    between atoms: _267  and  _484
REMARK  106  A    between atoms: _268  and  _270
REMARK  107  A    between atoms: _270  and  _271
REMARK  108  A    between atoms: _270  and  _273
REMARK  109  A    between atoms: _273  and  _274
REMARK  110  A    between atoms: _277  and  _279
REMARK  111  A    between atoms: _279  and  _280
REMARK  112  A    between atoms: _279  and  _282
REMARK  113  A    between atoms: _282  and  _283
REMARK  114  A    between atoms: _288  and  _289
REMARK  115  A    between atoms: _291  and  _293
REMARK  116  A    between atoms: _293  and  _294
REMARK  117  A    between atoms: _293  and  _296
REMARK  118  A    between atoms: _296  and  _297
REMARK  119  A    between atoms: _302  and  _303
REMARK  120  A    between atoms: _305  and  _307
REMARK  121  A    between atoms: _307  and  _308
REMARK  122  A    between atoms: _307  and  _310
REMARK  123  A    between atoms: _310  and  _311
REMARK  124  A    between atoms: _311  and  _312
REMARK  125  A    between atoms: _315  and  _317
REMARK  126  A    between atoms: _317  and  _318
REMARK  127  A    between atoms: _317  and  _320
REMARK  128  A    between atoms: _320  and  _321
REMARK  129  A    between atoms: _326  and  _327
REMARK  130  A    between atoms: _329  and  _331
REMARK  131  A    between atoms: _331  and  _332
REMARK  132  A    between atoms: _331  and  _334
REMARK  133  A    between atoms: _334  and  _335
REMARK  134  A    between atoms: _340  and  _342
REMARK  135  A    between atoms: _342  and  _343
REMARK  136  A    between atoms: _342  and  _345
REMARK  137  A    between atoms: _345  and  _346
REMARK  138  A    between atoms: _349  and  _351
REMARK  139  A    between atoms: _351  and  _352
REMARK  140  A    between atoms: _351  and  _354
REMARK  141  A    between atoms: _354  and  _355
REMARK  142  A    between atoms: _360  and  _362
REMARK  143  A    between atoms: _362  and  _363
REMARK  144  A    between atoms: _362  and  _365
REMARK  145  A    between atoms: _365  and  _366
REMARK  146  A    between atoms: _376  and  _378
REMARK  147  A    between atoms: _378  and  _379
REMARK  148  A    between atoms: _378  and  _381
REMARK  149  A    between atoms: _381  and  _382
REMARK  150  A    between atoms: _388  and  _390
REMARK  151  A    between atoms: _390  and  _391
REMARK  152  A    between atoms: _390  and  _393
REMARK  153  A    between atoms: _393  and  _394
REMARK  154  A    between atoms: _397  and  _399
REMARK  155  A    between atoms: _399  and  _400
REMARK  156  A    between atoms: _399  and  _402
REMARK  157  A    between atoms: _402  and  _403
REMARK  158  A    between atoms: _406  and  _408
REMARK  159  A    between atoms: _408  and  _409
REMARK  160  A    between atoms: _408  and  _411
REMARK  161  A    between atoms: _411  and  _412
REMARK  162  A    between atoms: _412  and  _413
REMARK  163  A    between atoms: _413  and  _414
REMARK  164  A    between atoms: _423  and  _425
REMARK  165  A    between atoms: _425  and  _426
REMARK  166  A    between atoms: _425  and  _428
REMARK  167  A    between atoms: _428  and  _429
REMARK  168  A    between atoms: _434  and  _436
REMARK  169  A    between atoms: _436  and  _437
REMARK  170  A    between atoms: _436  and  _439
REMARK  171  A    between atoms: _439  and  _440
REMARK  172  A    between atoms: _441  and  _442
REMARK  173  A    between atoms: _451  and  _453
REMARK  174  A    between atoms: _453  and  _454
REMARK  175  A    between atoms: _457  and  _459
REMARK  176  A    between atoms: _459  and  _460
REMARK  177  A    between atoms: _462  and  _464
REMARK  178  A    between atoms: _464  and  _465
REMARK  179  A    between atoms: _464  and  _467
REMARK  180  A    between atoms: _467  and  _468
REMARK  181  A    between atoms: _478  and  _480
REMARK  182  A    between atoms: _480  and  _481
REMARK  183  A    between atoms: _480  and  _483
REMARK  184  A    between atoms: _483  and  _484
REMARK  185  A    between atoms: _485  and  _487
REMARK  186  A    between atoms: _487  and  _488
REMARK  187  A    between atoms: _491  and  _493
REMARK  188  A    between atoms: _493  and  _494
REMARK  189  A    between atoms: _493  and  _496
REMARK  190  A    between atoms: _496  and  _497
REMARK  191  A    between atoms: _500  and  _502
REMARK  192  A    between atoms: _502  and  _503
REMARK  193  A    between atoms: _502  and  _505
REMARK  194  A    between atoms: _505  and  _506
REMARK  195  A    between atoms: _511  and  _512
REMARK  196  A    between atoms: _514  and  _516
REMARK  197  A    between atoms: _516  and  _517
REMARK  198  A    between atoms: _516  and  _519
REMARK  199  A    between atoms: _519  and  _520
REMARK  200  A    between atoms: _522  and  _524
REMARK  201  A    between atoms: _524  and  _525
REMARK  202  A    between atoms: _524  and  _527
REMARK  203  A    between atoms: _527  and  _528
REMARK  204  A    between atoms: _534  and  _536
REMARK  205  A    between atoms: _536  and  _537
REMARK  206  A    between atoms: _536  and  _539
REMARK  207  A    between atoms: _539  and  _540
REMARK  208  A    between atoms: _543  and  _545
REMARK  209  A    between atoms: _545  and  _546
REMARK  210  A    between atoms: _545  and  _548
REMARK  211  A    between atoms: _548  and  _549
REMARK  212  A    between atoms: _551  and  _553
REMARK  213  A    between atoms: _553  and  _554
REMARK  214  A    between atoms: _553  and  _556
REMARK  215  A    between atoms: _556  and  _557
REMARK  216  A    between atoms: _562  and  _564
REMARK  217  A    between atoms: _564  and  _565
REMARK  218  A    between atoms: _564  and  _567
REMARK  219  A    between atoms: _567  and  _568
REMARK  220  A    between atoms: _571  and  _573
REMARK  221  A    between atoms: _573  and  _574
REMARK  222  A    between atoms: _573  and  _576
REMARK  223  A    between atoms: _576  and  _577
REMARK  224  A    between atoms: _582  and  _583
REMARK  225  A    between atoms: _585  and  _587
REMARK  226  A    between atoms: _587  and  _588
REMARK  227  A    between atoms: _587  and  _590
REMARK  228  A    between atoms: _590  and  _591
REMARK  229  A    between atoms: _596  and  _597
REMARK  230  A    between atoms: _599  and  _601
REMARK  231  A    between atoms: _601  and  _602
REMARK  232  A    between atoms: _601  and  _604
REMARK  233  A    between atoms: _607  and  _609
REMARK  234  A    between atoms: _609  and  _610
REMARK  235  A    between atoms: _609  and  _612
REMARK  236  A    between atoms: _612  and  _613
REMARK  237  A    between atoms: _618  and  _620
REMARK  238  A    between atoms: _620  and  _621
REMARK  239  A    between atoms: _624  and  _626
REMARK  240  A    between atoms: _626  and  _627
REMARK  241  A    between atoms: _626  and  _629
REMARK  242  A    between atoms: _629  and  _630
REMARK  243  A    between atoms: _630  and  _631
REMARK  244  A    between atoms: _631  and  _632
REMARK  245  A    between atoms: _641  and  _643
REMARK  246  A    between atoms: _643  and  _644
REMARK  247  A    between atoms: _643  and  _646
REMARK  248  A    between atoms: _646  and  _647
REMARK  249  A    between atoms: _650  and  _652
REMARK  250  A    between atoms: _652  and  _653
REMARK  251  A    between atoms: _652  and  _655
REMARK  252  A    between atoms: _655  and  _656
REMARK  253  A    between atoms: _659  and  _661
REMARK  254  A    between atoms: _661  and  _662
REMARK  255  A    between atoms: _661  and  _664
REMARK  256  A    between atoms: _664  and  _665
REMARK                            x       y       z     vdW  Elec       q    Type
REMARK                         _______ _______ _______ _____ _____    ______ ____
ROOT
ATOM      1  O   HOH     1       8.760  13.225   7.199  0.00  0.00    +0.000 OA
ENDROOT
TORSDOF 0
REMARK  Name = ../refined-set-2016/1b6h/1b6h_pocket.pdb
REMARK  256 active torsions:
REMARK  status: ('A' for Active; 'I' for Inactive)
REMARK    1  A    between atoms: _1  and  _3
REMARK    2  A    between atoms: _3  and  _4
REMARK    3  A    between atoms: _3  and  _6
REMARK    4  A    between atoms: _6  and  _7
REMARK    5  A    between atoms: _12  and  _14
REMARK    6  A    between atoms: _14  and  _15
REMARK    7  A    between atoms: _17  and  _19
REMARK    8  A    between atoms: _19  and  _20
REMARK    9  A    between atoms: _19  and  _22
REMARK   10  A    between atoms: _22  and  _23
REMARK   11  A    between atoms: _23  and  _24
REMARK   12  A    between atoms: _29  and  _31
REMARK   13  A    between atoms: _31  and  _32
REMARK   14  A    between atoms: _31  and  _34
REMARK   15  A    between atoms: _34  and  _35
REMARK   16  A    between atoms: _38  and  _40
REMARK   17  A    between atoms: _40  and  _41
REMARK   18  A    between atoms: _40  and  _43
REMARK   19  A    between atoms: _43  and  _44
REMARK   20  A    between atoms: _44  and  _45
REMARK   21  A    between atoms: _48  and  _50
REMARK   22  A    between atoms: _50  and  _51
REMARK   23  A    between atoms: _53  and  _55
REMARK   24  A    between atoms: _55  and  _56
REMARK   25  A    between atoms: _55  and  _58
REMARK   26  A    between atoms: _62  and  _63
REMARK   27  A    between atoms: _68  and  _70
REMARK   28  A    between atoms: _70  and  _71
REMARK   29  A    between atoms: _70  and  _73
REMARK   30  A    between atoms: _73  and  _74
REMARK   31  A    between atoms: _74  and  _75
REMARK   32  A    between atoms: _78  and  _80
REMARK   33  A    between atoms: _80  and  _81
REMARK   34  A    between atoms: _80  and  _83
REMARK   35  A    between atoms: _83  and  _84
REMARK   36  A    between atoms: _86  and  _88
REMARK   37  A    between atoms: _88  and  _89
REMARK   38  A    between atoms: _88  and  _91
REMARK   39  A    between atoms: _91  and  _92
REMARK   40  A    between atoms: _97  and  _99
REMARK   41  A    between atoms: _99  and  _100
REMARK   42  A    between atoms: _99  and  _102
REMARK   43  A    between atoms: _102  and  _103
REMARK   44  A    between atoms: _103  and  _104
REMARK   45  A    between atoms: _104  and  _105
REMARK   46  A    between atoms: _115  and  _116
REMARK   47  A    between atoms: _121  and  _123
REMARK   48  A    between atoms: _123  and  _124
REMARK   49  A    between atoms: _123  and  _126
REMARK   50  A    between atoms: _126  and  _127
REMARK   51  A    between atoms: _132  and  _133
REMARK   52  A    between atoms: _135  and  _137
REMARK   53  A    between atoms: _137  and  _138
REMARK   54  A    between atoms: _137  and  _140
REMARK   55  A    between atoms: _140  and  _141
REMARK   56  A    between atoms: _146  and  _147
REMARK   57  A    between atoms: _149  and  _151
REMARK   58  A    between atoms: _151  and  _152
REMARK   59  A    between atoms: _151  and  _154
REMARK   60  A    between atoms: _157  and  _159
REMARK   61  A    between atoms: _159  and  _160
REMARK   62  A    between atoms: _159  and  _162
REMARK   63  A    between atoms: _162  and  _163
REMARK   64  A    between atoms: _169  and  _170
REMARK   65  A    between atoms: _175  and  _177
REMARK   66  A    between atoms: _177  and  _178
REMARK   67  A    between atoms: _177  and  _180
REMARK   68  A    between atoms: _180  and  _181
REMARK   69  A    between atoms: _183  and  _185
REMARK   70  A    between atoms: _185  and  _186
REMARK   71  A    between atoms: _185  and  _188
REMARK   72  A    between atoms: _188  and  _189
REMARK   73  A    between atoms: _189  and  _190
REMARK   74  A    between atoms: _193  and  _195
REMARK   75  A    between atoms: _195  and  _196
REMARK   76  A    between atoms: _195  and  _198
REMARK   77  A    between atoms: _198  and  _199
REMARK   78  A    between atoms: _204  and  _205
REMARK   79  A    between atoms: _207  and  _209
REMARK   80  A    between atoms: _209  and  _210
REMARK   81  A    between atoms: _209  and  _212
REMARK   82  A    between atoms: _212  and  _213
REMARK   83  A    between atoms: _218  and  _220
REMARK   84  A    between atoms: _220  and  _221
REMARK   85  A    between atoms: _220  and  _223
REMARK   86  A    between atoms: _223  and  _224
REMARK   87  A    between atoms: _229  and  _231
REMARK   88  A    between atoms: _231  and  _232
REMARK   89  A    between atoms: _231  and  _234
REMARK   90  A    between atoms: _234  and  _235
REMARK   91  A    between atoms: _235  and  _236
REMARK   92  A    between atoms: _238  and  _240
REMARK   93  A    between atoms: _240  and  _241
REMARK   94  A    between atoms: _240  and  _243
REMARK   95  A    between atoms: _243  and  _244
REMARK   96  A    between atoms: _249  and  _250
REMARK   97  A    between atoms: _252  and  _254
REMARK   98  A    between atoms: _254  and  _255
REMARK   99  A    between atoms: _254  and  _257
REMARK  100  A    between atoms: _257  and  _258
REMARK  101  A    between atoms: _261  and  _263
REMARK  102  A    between atoms: _263  and  _264
REMARK  103  A    between atoms: _263  and  _266
REMARK  104  A    between atoms: _266  and  _267
REMARK  105  A    between atoms: _267  and  _484
REMARK  106  A    between atoms: _268  and  _270
REMARK  107  A    between atoms: _270  and  _271
REMARK  108  A    between atoms: _270  and  _273
REMARK  109  A    between atoms: _273  and  _274
REMARK  110  A    between atoms: _277  and  _279
REMARK  111  A    between atoms: _279  and  _280
REMARK  112  A    between atoms: _279  and  _282
REMARK  113  A    between atoms: _282  and  _283
REMARK  114  A    between atoms: _288  and  _289
REMARK  115  A    between atoms: _291  and  _293
REMARK  116  A    between atoms: _293  and  _294
REMARK  117  A    between atoms: _293  and  _296
REMARK  118  A    between atoms: _296  and  _297
REMARK  119  A    between atoms: _302  and  _303
REMARK  120  A    between atoms: _305  and  _307
REMARK  121  A    between atoms: _307  and  _308
REMARK  122  A    between atoms: _307  and  _310
REMARK  123  A    between atoms: _310  and  _311
REMARK  124  A    between atoms: _311  and  _312
REMARK  125  A    between atoms: _315  and  _317
REMARK  126  A    between atoms: _317  and  _318
REMARK  127  A    between atoms: _317  and  _320
REMARK  128  A    between atoms: _320  and  _321
REMARK  129  A    between atoms: _326  and  _327
REMARK  130  A    between atoms: _329  and  _331
REMARK  131  A    between atoms: _331  and  _332
REMARK  132  A    between atoms: _331  and  _334
REMARK  133  A    between atoms: _334  and  _335
REMARK  134  A    between atoms: _340  and  _342
REMARK  135  A    between atoms: _342  and  _343
REMARK  136  A    between atoms: _342  and  _345
REMARK  137  A    between atoms: _345  and  _346
REMARK  138  A    between atoms: _349  and  _351
REMARK  139  A    between atoms: _351  and  _352
REMARK  140  A    between atoms: _351  and  _354
REMARK  141  A    between atoms: _354  and  _355
REMARK  142  A    between atoms: _360  and  _362
REMARK  143  A    between atoms: _362  and  _363
REMARK  144  A    between atoms: _362  and  _365
REMARK  145  A    between atoms: _365  and  _366
REMARK  146  A    between atoms: _376  and  _378
REMARK  147  A    between atoms: _378  and  _379
REMARK  148  A    between atoms: _378  and  _381
REMARK  149  A    between atoms: _381  and  _382
REMARK  150  A    between atoms: _388  and  _390
REMARK  151  A    between atoms: _390  and  _391
REMARK  152  A    between atoms: _390  and  _393
REMARK  153  A    between atoms: _393  and  _394
REMARK  154  A    between atoms: _397  and  _399
REMARK  155  A    between atoms: _399  and  _400
REMARK  156  A    between atoms: _399  and  _402
REMARK  157  A    between atoms: _402  and  _403
REMARK  158  A    between atoms: _406  and  _408
REMARK  159  A    between atoms: _408  and  _409
REMARK  160  A    between atoms: _408  and  _411
REMARK  161  A    between atoms: _411  and  _412
REMARK  162  A    between atoms: _412  and  _413
REMARK  163  A    between atoms: _413  and  _414
REMARK  164  A    between atoms: _423  and  _425
REMARK  165  A    between atoms: _425  and  _426
REMARK  166  A    between atoms: _425  and  _428
REMARK  167  A    between atoms: _428  and  _429
REMARK  168  A    between atoms: _434  and  _436
REMARK  169  A    between atoms: _436  and  _437
REMARK  170  A    between atoms: _436  and  _439
REMARK  171  A    between atoms: _439  and  _440
REMARK  172  A    between atoms: _441  and  _442
REMARK  173  A    between atoms: _451  and  _453
REMARK  174  A    between atoms: _453  and  _454
REMARK  175  A    between atoms: _457  and  _459
REMARK  176  A    between atoms: _459  and  _460
REMARK  177  A    between atoms: _462  and  _464
REMARK  178  A    between atoms: _464  and  _465
REMARK  179  A    between atoms: _464  and  _467
REMARK  180  A    between atoms: _467  and  _468
REMARK  181  A    between atoms: _478  and  _480
REMARK  182  A    between atoms: _480  and  _481
REMARK  183  A    between atoms: _480  and  _483
REMARK  184  A    between atoms: _483  and  _484
REMARK  185  A    between atoms: _485  and  _487
REMARK  186  A    between atoms: _487  and  _488
REMARK  187  A    between atoms: _491  and  _493
REMARK  188  A    between atoms: _493  and  _494
REMARK  189  A    between atoms: _493  and  _496
REMARK  190  A    between atoms: _496  and  _497
REMARK  191  A    between atoms: _500  and  _502
REMARK  192  A    between atoms: _502  and  _503
REMARK  193  A    between atoms: _502  and  _505
REMARK  194  A    between atoms: _505  and  _506
REMARK  195  A    between atoms: _511  and  _512
REMARK  196  A    between atoms: _514  and  _516
REMARK  197  A    between atoms: _516  and  _517
REMARK  198  A    between atoms: _516  and  _519
REMARK  199  A    between atoms: _519  and  _520
REMARK  200  A    between atoms: _522  and  _524
REMARK  201  A    between atoms: _524  and  _525
REMARK  202  A    between atoms: _524  and  _527
REMARK  203  A    between atoms: _527  and  _528
REMARK  204  A    between atoms: _534  and  _536
REMARK  205  A    between atoms: _536  and  _537
REMARK  206  A    between atoms: _536  and  _539
REMARK  207  A    between atoms: _539  and  _540
REMARK  208  A    between atoms: _543  and  _545
REMARK  209  A    between atoms: _545  and  _546
REMARK  210  A    between atoms: _545  and  _548
REMARK  211  A    between atoms: _548  and  _549
REMARK  212  A    between atoms: _551  and  _553
REMARK  213  A    between atoms: _553  and  _554
REMARK  214  A    between atoms: _553  and  _556
REMARK  215  A    between atoms: _556  and  _557
REMARK  216  A    between atoms: _562  and  _564
REMARK  217  A    between atoms: _564  and  _565
REMARK  218  A    between atoms: _564  and  _567
REMARK  219  A    between atoms: _567  and  _568
REMARK  220  A    between atoms: _571  and  _573
REMARK  221  A    between atoms: _573  and  _574
REMARK  222  A    between atoms: _573  and  _576
REMARK  223  A    between atoms: _576  and  _577
REMARK  224  A    between atoms: _582  and  _583
REMARK  225  A    between atoms: _585  and  _587
REMARK  226  A    between atoms: _587  and  _588
REMARK  227  A    between atoms: _587  and  _590
REMARK  228  A    between atoms: _590  and  _591
REMARK  229  A    between atoms: _596  and  _597
REMARK  230  A    between atoms: _599  and  _601
REMARK  231  A    between atoms: _601  and  _602
REMARK  232  A    between atoms: _601  and  _604
REMARK  233  A    between atoms: _607  and  _609
REMARK  234  A    between atoms: _609  and  _610
REMARK  235  A    between atoms: _609  and  _612
REMARK  236  A    between atoms: _612  and  _613
REMARK  237  A    between atoms: _618  and  _620
REMARK  238  A    between atoms: _620  and  _621
REMARK  239  A    between atoms: _624  and  _626
REMARK  240  A    between atoms: _626  and  _627
REMARK  241  A    between atoms: _626  and  _629
REMARK  242  A    between atoms: _629  and  _630
REMARK  243  A    between atoms: _630  and  _631
REMARK  244  A    between atoms: _631  and  _632
REMARK  245  A    between atoms: _641  and  _643
REMARK  246  A    between atoms: _643  and  _644
REMARK  247  A    between atoms: _643  and  _646
REMARK  248  A    between atoms: _646  and  _647
REMARK  249  A    between atoms: _650  and  _652
REMARK  250  A    between atoms: _652  and  _653
REMARK  251  A    between atoms: _652  and  _655
REMARK  252  A    between atoms: _655  and  _656
REMARK  253  A    between atoms: _659  and  _661
REMARK  254  A    between atoms: _661  and  _662
REMARK  255  A    between atoms: _661  and  _664
REMARK  256  A    between atoms: _664  and  _665
REMARK                            x       y       z     vdW  Elec       q    Type
REMARK                         _______ _______ _______ _____ _____    ______ ____
ROOT
ATOM      1  O   HOH     1      -9.992  16.236  14.470  0.00  0.00    +0.000 OA
ENDROOT
TORSDOF 0
REMARK  Name = ../refined-set-2016/1b6h/1b6h_pocket.pdb
REMARK  256 active torsions:
REMARK  status: ('A' for Active; 'I' for Inactive)
REMARK    1  A    between atoms: _1  and  _3
REMARK    2  A    between atoms: _3  and  _4
REMARK    3  A    between atoms: _3  and  _6
REMARK    4  A    between atoms: _6  and  _7
REMARK    5  A    between atoms: _12  and  _14
REMARK    6  A    between atoms: _14  and  _15
REMARK    7  A    between atoms: _17  and  _19
REMARK    8  A    between atoms: _19  and  _20
REMARK    9  A    between atoms: _19  and  _22
REMARK   10  A    between atoms: _22  and  _23
REMARK   11  A    between atoms: _23  and  _24
REMARK   12  A    between atoms: _29  and  _31
REMARK   13  A    between atoms: _31  and  _32
REMARK   14  A    between atoms: _31  and  _34
REMARK   15  A    between atoms: _34  and  _35
REMARK   16  A    between atoms: _38  and  _40
REMARK   17  A    between atoms: _40  and  _41
REMARK   18  A    between atoms: _40  and  _43
REMARK   19  A    between atoms: _43  and  _44
REMARK   20  A    between atoms: _44  and  _45
REMARK   21  A    between atoms: _48  and  _50
REMARK   22  A    between atoms: _50  and  _51
REMARK   23  A    between atoms: _53  and  _55
REMARK   24  A    between atoms: _55  and  _56
REMARK   25  A    between atoms: _55  and  _58
REMARK   26  A    between atoms: _62  and  _63
REMARK   27  A    between atoms: _68  and  _70
REMARK   28  A    between atoms: _70  and  _71
REMARK   29  A    between atoms: _70  and  _73
REMARK   30  A    between atoms: _73  and  _74
REMARK   31  A    between atoms: _74  and  _75
REMARK   32  A    between atoms: _78  and  _80
REMARK   33  A    between atoms: _80  and  _81
REMARK   34  A    between atoms: _80  and  _83
REMARK   35  A    between atoms: _83  and  _84
REMARK   36  A    between atoms: _86  and  _88
REMARK   37  A    between atoms: _88  and  _89
REMARK   38  A    between atoms: _88  and  _91
REMARK   39  A    between atoms: _91  and  _92
REMARK   40  A    between atoms: _97  and  _99
REMARK   41  A    between atoms: _99  and  _100
REMARK   42  A    between atoms: _99  and  _102
REMARK   43  A    between atoms: _102  and  _103
REMARK   44  A    between atoms: _103  and  _104
REMARK   45  A    between atoms: _104  and  _105
REMARK   46  A    between atoms: _115  and  _116
REMARK   47  A    between atoms: _121  and  _123
REMARK   48  A    between atoms: _123  and  _124
REMARK   49  A    between atoms: _123  and  _126
REMARK   50  A    between atoms: _126  and  _127
REMARK   51  A    between atoms: _132  and  _133
REMARK   52  A    between atoms: _135  and  _137
REMARK   53  A    between atoms: _137  and  _138
REMARK   54  A    between atoms: _137  and  _140
REMARK   55  A    between atoms: _140  and  _141
REMARK   56  A    between atoms: _146  and  _147
REMARK   57  A    between atoms: _149  and  _151
REMARK   58  A    between atoms: _151  and  _152
REMARK   59  A    between atoms: _151  and  _154
REMARK   60  A    between atoms: _157  and  _159
REMARK   61  A    between atoms: _159  and  _160
REMARK   62  A    between atoms: _159  and  _162
REMARK   63  A    between atoms: _162  and  _163
REMARK   64  A    between atoms: _169  and  _170
REMARK   65  A    between atoms: _175  and  _177
REMARK   66  A    between atoms: _177  and  _178
REMARK   67  A    between atoms: _177  and  _180
REMARK   68  A    between atoms: _180  and  _181
REMARK   69  A    between atoms: _183  and  _185
REMARK   70  A    between atoms: _185  and  _186
REMARK   71  A    between atoms: _185  and  _188
REMARK   72  A    between atoms: _188  and  _189
REMARK   73  A    between atoms: _189  and  _190
REMARK   74  A    between atoms: _193  and  _195
REMARK   75  A    between atoms: _195  and  _196
REMARK   76  A    between atoms: _195  and  _198
REMARK   77  A    between atoms: _198  and  _199
REMARK   78  A    between atoms: _204  and  _205
REMARK   79  A    between atoms: _207  and  _209
REMARK   80  A    between atoms: _209  and  _210
REMARK   81  A    between atoms: _209  and  _212
REMARK   82  A    between atoms: _212  and  _213
REMARK   83  A    between atoms: _218  and  _220
REMARK   84  A    between atoms: _220  and  _221
REMARK   85  A    between atoms: _220  and  _223
REMARK   86  A    between atoms: _223  and  _224
REMARK   87  A    between atoms: _229  and  _231
REMARK   88  A    between atoms: _231  and  _232
REMARK   89  A    between atoms: _231  and  _234
REMARK   90  A    between atoms: _234  and  _235
REMARK   91  A    between atoms: _235  and  _236
REMARK   92  A    between atoms: _238  and  _240
REMARK   93  A    between atoms: _240  and  _241
REMARK   94  A    between atoms: _240  and  _243
REMARK   95  A    between atoms: _243  and  _244
REMARK   96  A    between atoms: _249  and  _250
REMARK   97  A    between atoms: _252  and  _254
REMARK   98  A    between atoms: _254  and  _255
REMARK   99  A    between atoms: _254  and  _257
REMARK  100  A    between atoms: _257  and  _258
REMARK  101  A    between atoms: _261  and  _263
REMARK  102  A    between atoms: _263  and  _264
REMARK  103  A    between atoms: _263  and  _266
REMARK  104  A    between atoms: _266  and  _267
REMARK  105  A    between atoms: _267  and  _484
REMARK  106  A    between atoms: _268  and  _270
REMARK  107  A    between atoms: _270  and  _271
REMARK  108  A    between atoms: _270  and  _273
REMARK  109  A    between atoms: _273  and  _274
REMARK  110  A    between atoms: _277  and  _279
REMARK  111  A    between atoms: _279  and  _280
REMARK  112  A    between atoms: _279  and  _282
REMARK  113  A    between atoms: _282  and  _283
REMARK  114  A    between atoms: _288  and  _289
REMARK  115  A    between atoms: _291  and  _293
REMARK  116  A    between atoms: _293  and  _294
REMARK  117  A    between atoms: _293  and  _296
REMARK  118  A    between atoms: _296  and  _297
REMARK  119  A    between atoms: _302  and  _303
REMARK  120  A    between atoms: _305  and  _307
REMARK  121  A    between atoms: _307  and  _308
REMARK  122  A    between atoms: _307  and  _310
REMARK  123  A    between atoms: _310  and  _311
REMARK  124  A    between atoms: _311  and  _312
REMARK  125  A    between atoms: _315  and  _317
REMARK  126  A    between atoms: _317  and  _318
REMARK  127  A    between atoms: _317  and  _320
REMARK  128  A    between atoms: _320  and  _321
REMARK  129  A    between atoms: _326  and  _327
REMARK  130  A    between atoms: _329  and  _331
REMARK  131  A    between atoms: _331  and  _332
REMARK  132  A    between atoms: _331  and  _334
REMARK  133  A    between atoms: _334  and  _335
REMARK  134  A    between atoms: _340  and  _342
REMARK  135  A    between atoms: _342  and  _343
REMARK  136  A    between atoms: _342  and  _345
REMARK  137  A    between atoms: _345  and  _346
REMARK  138  A    between atoms: _349  and  _351
REMARK  139  A    between atoms: _351  and  _352
REMARK  140  A    between atoms: _351  and  _354
REMARK  141  A    between atoms: _354  and  _355
REMARK  142  A    between atoms: _360  and  _362
REMARK  143  A    between atoms: _362  and  _363
REMARK  144  A    between atoms: _362  and  _365
REMARK  145  A    between atoms: _365  and  _366
REMARK  146  A    between atoms: _376  and  _378
REMARK  147  A    between atoms: _378  and  _379
REMARK  148  A    between atoms: _378  and  _381
REMARK  149  A    between atoms: _381  and  _382
REMARK  150  A    between atoms: _388  and  _390
REMARK  151  A    between atoms: _390  and  _391
REMARK  152  A    between atoms: _390  and  _393
REMARK  153  A    between atoms: _393  and  _394
REMARK  154  A    between atoms: _397  and  _399
REMARK  155  A    between atoms: _399  and  _400
REMARK  156  A    between atoms: _399  and  _402
REMARK  157  A    between atoms: _402  and  _403
REMARK  158  A    between atoms: _406  and  _408
REMARK  159  A    between atoms: _408  and  _409
REMARK  160  A    between atoms: _408  and  _411
REMARK  161  A    between atoms: _411  and  _412
REMARK  162  A    between atoms: _412  and  _413
REMARK  163  A    between atoms: _413  and  _414
REMARK  164  A    between atoms: _423  and  _425
REMARK  165  A    between atoms: _425  and  _426
REMARK  166  A    between atoms: _425  and  _428
REMARK  167  A    between atoms: _428  and  _429
REMARK  168  A    between atoms: _434  and  _436
REMARK  169  A    between atoms: _436  and  _437
REMARK  170  A    between atoms: _436  and  _439
REMARK  171  A    between atoms: _439  and  _440
REMARK  172  A    between atoms: _441  and  _442
REMARK  173  A    between atoms: _451  and  _453
REMARK  174  A    between atoms: _453  and  _454
REMARK  175  A    between atoms: _457  and  _459
REMARK  176  A    between atoms: _459  and  _460
REMARK  177  A    between atoms: _462  and  _464
REMARK  178  A    between atoms: _464  and  _465
REMARK  179  A    between atoms: _464  and  _467
REMARK  180  A    between atoms: _467  and  _468
REMARK  181  A    between atoms: _478  and  _480
REMARK  182  A    between atoms: _480  and  _481
REMARK  183  A    between atoms: _480  and  _483
REMARK  184  A    between atoms: _483  and  _484
REMARK  185  A    between atoms: _485  and  _487
REMARK  186  A    between atoms: _487  and  _488
REMARK  187  A    between atoms: _491  and  _493
REMARK  188  A    between atoms: _493  and  _494
REMARK  189  A    between atoms: _493  and  _496
REMARK  190  A    between atoms: _496  and  _497
REMARK  191  A    between atoms: _500  and  _502
REMARK  192  A    between atoms: _502  and  _503
REMARK  193  A    between atoms: _502  and  _505
REMARK  194  A    between atoms: _505  and  _506
REMARK  195  A    between atoms: _511  and  _512
REMARK  196  A    between atoms: _514  and  _516
REMARK  197  A    between atoms: _516  and  _517
REMARK  198  A    between atoms: _516  and  _519
REMARK  199  A    between atoms: _519  and  _520
REMARK  200  A    between atoms: _522  and  _524
REMARK  201  A    between atoms: _524  and  _525
REMARK  202  A    between atoms: _524  and  _527
REMARK  203  A    between atoms: _527  and  _528
REMARK  204  A    between atoms: _534  and  _536
REMARK  205  A    between atoms: _536  and  _537
REMARK  206  A    between atoms: _536  and  _539
REMARK  207  A    between atoms: _539  and  _540
REMARK  208  A    between atoms: _543  and  _545
REMARK  209  A    between atoms: _545  and  _546
REMARK  210  A    between atoms: _545  and  _548
REMARK  211  A    between atoms: _548  and  _549
REMARK  212  A    between atoms: _551  and  _553
REMARK  213  A    between atoms: _553  and  _554
REMARK  214  A    between atoms: _553  and  _556
REMARK  215  A    between atoms: _556  and  _557
REMARK  216  A    between atoms: _562  and  _564
REMARK  217  A    between atoms: _564  and  _565
REMARK  218  A    between atoms: _564  and  _567
REMARK  219  A    between atoms: _567  and  _568
REMARK  220  A    between atoms: _571  and  _573
REMARK  221  A    between atoms: _573  and  _574
REMARK  222  A    between atoms: _573  and  _576
REMARK  223  A    between atoms: _576  and  _577
REMARK  224  A    between atoms: _582  and  _583
REMARK  225  A    between atoms: _585  and  _587
REMARK  226  A    between atoms: _587  and  _588
REMARK  227  A    between atoms: _587  and  _590
REMARK  228  A    between atoms: _590  and  _591
REMARK  229  A    between atoms: _596  and  _597
REMARK  230  A    between atoms: _599  and  _601
REMARK  231  A    between atoms: _601  and  _602
REMARK  232  A    between atoms: _601  and  _604
REMARK  233  A    between atoms: _607  and  _609
REMARK  234  A    between atoms: _609  and  _610
REMARK  235  A    between atoms: _609  and  _612
REMARK  236  A    between atoms: _612  and  _613
REMARK  237  A    between atoms: _618  and  _620
REMARK  238  A    between atoms: _620  and  _621
REMARK  239  A    between atoms: _624  and  _626
REMARK  240  A    between atoms: _626  and  _627
REMARK  241  A    between atoms: _626  and  _629
REMARK  242  A    between atoms: _629  and  _630
REMARK  243  A    between atoms: _630  and  _631
REMARK  244  A    between atoms: _631  and  _632
REMARK  245  A    between atoms: _641  and  _643
REMARK  246  A    between atoms: _643  and  _644
REMARK  247  A    between atoms: _643  and  _646
REMARK  248  A    between atoms: _646  and  _647
REMARK  249  A    between atoms: _650  and  _652
REMARK  250  A    between atoms: _652  and  _653
REMARK  251  A    between atoms: _652  and  _655
REMARK  252  A    between atoms: _655  and  _656
REMARK  253  A    between atoms: _659  and  _661
REMARK  254  A    between atoms: _661  and  _662
REMARK  255  A    between atoms: _661  and  _664
REMARK  256  A    between atoms: _664  and  _665
REMARK                            x       y       z     vdW  Elec       q    Type
REMARK                         _______ _______ _______ _____ _____    ______ ____
ROOT
ATOM      1  O   HOH     1      10.192  15.827   4.829  0.00  0.00    +0.000 OA
ENDROOT
TORSDOF 0
REMARK  Name = ../refined-set-2016/1b6h/1b6h_pocket.pdb
REMARK  256 active torsions:
REMARK  status: ('A' for Active; 'I' for Inactive)
REMARK    1  A    between atoms: _1  and  _3
REMARK    2  A    between atoms: _3  and  _4
REMARK    3  A    between atoms: _3  and  _6
REMARK    4  A    between atoms: _6  and  _7
REMARK    5  A    between atoms: _12  and  _14
REMARK    6  A    between atoms: _14  and  _15
REMARK    7  A    between atoms: _17  and  _19
REMARK    8  A    between atoms: _19  and  _20
REMARK    9  A    between atoms: _19  and  _22
REMARK   10  A    between atoms: _22  and  _23
REMARK   11  A    between atoms: _23  and  _24
REMARK   12  A    between atoms: _29  and  _31
REMARK   13  A    between atoms: _31  and  _32
REMARK   14  A    between atoms: _31  and  _34
REMARK   15  A    between atoms: _34  and  _35
REMARK   16  A    between atoms: _38  and  _40
REMARK   17  A    between atoms: _40  and  _41
REMARK   18  A    between atoms: _40  and  _43
REMARK   19  A    between atoms: _43  and  _44
REMARK   20  A    between atoms: _44  and  _45
REMARK   21  A    between atoms: _48  and  _50
REMARK   22  A    between atoms: _50  and  _51
REMARK   23  A    between atoms: _53  and  _55
REMARK   24  A    between atoms: _55  and  _56
REMARK   25  A    between atoms: _55  and  _58
REMARK   26  A    between atoms: _62  and  _63
REMARK   27  A    between atoms: _68  and  _70
REMARK   28  A    between atoms: _70  and  _71
REMARK   29  A    between atoms: _70  and  _73
REMARK   30  A    between atoms: _73  and  _74
REMARK   31  A    between atoms: _74  and  _75
REMARK   32  A    between atoms: _78  and  _80
REMARK   33  A    between atoms: _80  and  _81
REMARK   34  A    between atoms: _80  and  _83
REMARK   35  A    between atoms: _83  and  _84
REMARK   36  A    between atoms: _86  and  _88
REMARK   37  A    between atoms: _88  and  _89
REMARK   38  A    between atoms: _88  and  _91
REMARK   39  A    between atoms: _91  and  _92
REMARK   40  A    between atoms: _97  and  _99
REMARK   41  A    between atoms: _99  and  _100
REMARK   42  A    between atoms: _99  and  _102
REMARK   43  A    between atoms: _102  and  _103
REMARK   44  A    between atoms: _103  and  _104
REMARK   45  A    between atoms: _104  and  _105
REMARK   46  A    between atoms: _115  and  _116
REMARK   47  A    between atoms: _121  and  _123
REMARK   48  A    between atoms: _123  and  _124
REMARK   49  A    between atoms: _123  and  _126
REMARK   50  A    between atoms: _126  and  _127
REMARK   51  A    between atoms: _132  and  _133
REMARK   52  A    between atoms: _135  and  _137
REMARK   53  A    between atoms: _137  and  _138
REMARK   54  A    between atoms: _137  and  _140
REMARK   55  A    between atoms: _140  and  _141
REMARK   56  A    between atoms: _146  and  _147
REMARK   57  A    between atoms: _149  and  _151
REMARK   58  A    between atoms: _151  and  _152
REMARK   59  A    between atoms: _151  and  _154
REMARK   60  A    between atoms: _157  and  _159
REMARK   61  A    between atoms: _159  and  _160
REMARK   62  A    between atoms: _159  and  _162
REMARK   63  A    between atoms: _162  and  _163
REMARK   64  A    between atoms: _169  and  _170
REMARK   65  A    between atoms: _175  and  _177
REMARK   66  A    between atoms: _177  and  _178
REMARK   67  A    between atoms: _177  and  _180
REMARK   68  A    between atoms: _180  and  _181
REMARK   69  A    between atoms: _183  and  _185
REMARK   70  A    between atoms: _185  and  _186
REMARK   71  A    between atoms: _185  and  _188
REMARK   72  A    between atoms: _188  and  _189
REMARK   73  A    between atoms: _189  and  _190
REMARK   74  A    between atoms: _193  and  _195
REMARK   75  A    between atoms: _195  and  _196
REMARK   76  A    between atoms: _195  and  _198
REMARK   77  A    between atoms: _198  and  _199
REMARK   78  A    between atoms: _204  and  _205
REMARK   79  A    between atoms: _207  and  _209
REMARK   80  A    between atoms: _209  and  _210
REMARK   81  A    between atoms: _209  and  _212
REMARK   82  A    between atoms: _212  and  _213
REMARK   83  A    between atoms: _218  and  _220
REMARK   84  A    between atoms: _220  and  _221
REMARK   85  A    between atoms: _220  and  _223
REMARK   86  A    between atoms: _223  and  _224
REMARK   87  A    between atoms: _229  and  _231
REMARK   88  A    between atoms: _231  and  _232
REMARK   89  A    between atoms: _231  and  _234
REMARK   90  A    between atoms: _234  and  _235
REMARK   91  A    between atoms: _235  and  _236
REMARK   92  A    between atoms: _238  and  _240
REMARK   93  A    between atoms: _240  and  _241
REMARK   94  A    between atoms: _240  and  _243
REMARK   95  A    between atoms: _243  and  _244
REMARK   96  A    between atoms: _249  and  _250
REMARK   97  A    between atoms: _252  and  _254
REMARK   98  A    between atoms: _254  and  _255
REMARK   99  A    between atoms: _254  and  _257
REMARK  100  A    between atoms: _257  and  _258
REMARK  101  A    between atoms: _261  and  _263
REMARK  102  A    between atoms: _263  and  _264
REMARK  103  A    between atoms: _263  and  _266
REMARK  104  A    between atoms: _266  and  _267
REMARK  105  A    between atoms: _267  and  _484
REMARK  106  A    between atoms: _268  and  _270
REMARK  107  A    between atoms: _270  and  _271
REMARK  108  A    between atoms: _270  and  _273
REMARK  109  A    between atoms: _273  and  _274
REMARK  110  A    between atoms: _277  and  _279
REMARK  111  A    between atoms: _279  and  _280
REMARK  112  A    between atoms: _279  and  _282
REMARK  113  A    between atoms: _282  and  _283
REMARK  114  A    between atoms: _288  and  _289
REMARK  115  A    between atoms: _291  and  _293
REMARK  116  A    between atoms: _293  and  _294
REMARK  117  A    between atoms: _293  and  _296
REMARK  118  A    between atoms: _296  and  _297
REMARK  119  A    between atoms: _302  and  _303
REMARK  120  A    between atoms: _305  and  _307
REMARK  121  A    between atoms: _307  and  _308
REMARK  122  A    between atoms: _307  and  _310
REMARK  123  A    between atoms: _310  and  _311
REMARK  124  A    between atoms: _311  and  _312
REMARK  125  A    between atoms: _315  and  _317
REMARK  126  A    between atoms: _317  and  _318
REMARK  127  A    between atoms: _317  and  _320
REMARK  128  A    between atoms: _320  and  _321
REMARK  129  A    between atoms: _326  and  _327
REMARK  130  A    between atoms: _329  and  _331
REMARK  131  A    between atoms: _331  and  _332
REMARK  132  A    between atoms: _331  and  _334
REMARK  133  A    between atoms: _334  and  _335
REMARK  134  A    between atoms: _340  and  _342
REMARK  135  A    between atoms: _342  and  _343
REMARK  136  A    between atoms: _342  and  _345
REMARK  137  A    between atoms: _345  and  _346
REMARK  138  A    between atoms: _349  and  _351
REMARK  139  A    between atoms: _351  and  _352
REMARK  140  A    between atoms: _351  and  _354
REMARK  141  A    between atoms: _354  and  _355
REMARK  142  A    between atoms: _360  and  _362
REMARK  143  A    between atoms: _362  and  _363
REMARK  144  A    between atoms: _362  and  _365
REMARK  145  A    between atoms: _365  and  _366
REMARK  146  A    between atoms: _376  and  _378
REMARK  147  A    between atoms: _378  and  _379
REMARK  148  A    between atoms: _378  and  _381
REMARK  149  A    between atoms: _381  and  _382
REMARK  150  A    between atoms: _388  and  _390
REMARK  151  A    between atoms: _390  and  _391
REMARK  152  A    between atoms: _390  and  _393
REMARK  153  A    between atoms: _393  and  _394
REMARK  154  A    between atoms: _397  and  _399
REMARK  155  A    between atoms: _399  and  _400
REMARK  156  A    between atoms: _399  and  _402
REMARK  157  A    between atoms: _402  and  _403
REMARK  158  A    between atoms: _406  and  _408
REMARK  159  A    between atoms: _408  and  _409
REMARK  160  A    between atoms: _408  and  _411
REMARK  161  A    between atoms: _411  and  _412
REMARK  162  A    between atoms: _412  and  _413
REMARK  163  A    between atoms: _413  and  _414
REMARK  164  A    between atoms: _423  and  _425
REMARK  165  A    between atoms: _425  and  _426
REMARK  166  A    between atoms: _425  and  _428
REMARK  167  A    between atoms: _428  and  _429
REMARK  168  A    between atoms: _434  and  _436
REMARK  169  A    between atoms: _436  and  _437
REMARK  170  A    between atoms: _436  and  _439
REMARK  171  A    between atoms: _439  and  _440
REMARK  172  A    between atoms: _441  and  _442
REMARK  173  A    between atoms: _451  and  _453
REMARK  174  A    between atoms: _453  and  _454
REMARK  175  A    between atoms: _457  and  _459
REMARK  176  A    between atoms: _459  and  _460
REMARK  177  A    between atoms: _462  and  _464
REMARK  178  A    between atoms: _464  and  _465
REMARK  179  A    between atoms: _464  and  _467
REMARK  180  A    between atoms: _467  and  _468
REMARK  181  A    between atoms: _478  and  _480
REMARK  182  A    between atoms: _480  and  _481
REMARK  183  A    between atoms: _480  and  _483
REMARK  184  A    between atoms: _483  and  _484
REMARK  185  A    between atoms: _485  and  _487
REMARK  186  A    between atoms: _487  and  _488
REMARK  187  A    between atoms: _491  and  _493
REMARK  188  A    between atoms: _493  and  _494
REMARK  189  A    between atoms: _493  and  _496
REMARK  190  A    between atoms: _496  and  _497
REMARK  191  A    between atoms: _500  and  _502
REMARK  192  A    between atoms: _502  and  _503
REMARK  193  A    between atoms: _502  and  _505
REMARK  194  A    between atoms: _505  and  _506
REMARK  195  A    between atoms: _511  and  _512
REMARK  196  A    between atoms: _514  and  _516
REMARK  197  A    between atoms: _516  and  _517
REMARK  198  A    between atoms: _516  and  _519
REMARK  199  A    between atoms: _519  and  _520
REMARK  200  A    between atoms: _522  and  _524
REMARK  201  A    between atoms: _524  and  _525
REMARK  202  A    between atoms: _524  and  _527
REMARK  203  A    between atoms: _527  and  _528
REMARK  204  A    between atoms: _534  and  _536
REMARK  205  A    between atoms: _536  and  _537
REMARK  206  A    between atoms: _536  and  _539
REMARK  207  A    between atoms: _539  and  _540
REMARK  208  A    between atoms: _543  and  _545
REMARK  209  A    between atoms: _545  and  _546
REMARK  210  A    between atoms: _545  and  _548
REMARK  211  A    between atoms: _548  and  _549
REMARK  212  A    between atoms: _551  and  _553
REMARK  213  A    between atoms: _553  and  _554
REMARK  214  A    between atoms: _553  and  _556
REMARK  215  A    between atoms: _556  and  _557
REMARK  216  A    between atoms: _562  and  _564
REMARK  217  A    between atoms: _564  and  _565
REMARK  218  A    between atoms: _564  and  _567
REMARK  219  A    between atoms: _567  and  _568
REMARK  220  A    between atoms: _571  and  _573
REMARK  221  A    between atoms: _573  and  _574
REMARK  222  A    between atoms: _573  and  _576
REMARK  223  A    between atoms: _576  and  _577
REMARK  224  A    between atoms: _582  and  _583
REMARK  225  A    between atoms: _585  and  _587
REMARK  226  A    between atoms: _587  and  _588
REMARK  227  A    between atoms: _587  and  _590
REMARK  228  A    between atoms: _590  and  _591
REMARK  229  A    between atoms: _596  and  _597
REMARK  230  A    between atoms: _599  and  _601
REMARK  231  A    between atoms: _601  and  _602
REMARK  232  A    between atoms: _601  and  _604
REMARK  233  A    between atoms: _607  and  _609
REMARK  234  A    between atoms: _609  and  _610
REMARK  235  A    between atoms: _609  and  _612
REMARK  236  A    between atoms: _612  and  _613
REMARK  237  A    between atoms: _618  and  _620
REMARK  238  A    between atoms: _620  and  _621
REMARK  239  A    between atoms: _624  and  _626
REMARK  240  A    between atoms: _626  and  _627
REMARK  241  A    between atoms: _626  and  _629
REMARK  242  A    between atoms: _629  and  _630
REMARK  243  A    between atoms: _630  and  _631
REMARK  244  A    between atoms: _631  and  _632
REMARK  245  A    between atoms: _641  and  _643
REMARK  246  A    between atoms: _643  and  _644
REMARK  247  A    between atoms: _643  and  _646
REMARK  248  A    between atoms: _646  and  _647
REMARK  249  A    between atoms: _650  and  _652
REMARK  250  A    between atoms: _652  and  _653
REMARK  251  A    between atoms: _652  and  _655
REMARK  252  A    between atoms: _655  and  _656
REMARK  253  A    between atoms: _659  and  _661
REMARK  254  A    between atoms: _661  and  _662
REMARK  255  A    between atoms: _661  and  _664
REMARK  256  A    between atoms: _664  and  _665
REMARK                            x       y       z     vdW  Elec       q    Type
REMARK                         _______ _______ _______ _____ _____    ______ ____
ROOT
ATOM      1  O   HOH     1       8.068  11.231   5.107  0.00  0.00    +0.000 OA
ENDROOT
TORSDOF 0
REMARK  Name = ../refined-set-2016/1b6h/1b6h_pocket.pdb
REMARK  256 active torsions:
REMARK  status: ('A' for Active; 'I' for Inactive)
REMARK    1  A    between atoms: _1  and  _3
REMARK    2  A    between atoms: _3  and  _4
REMARK    3  A    between atoms: _3  and  _6
REMARK    4  A    between atoms: _6  and  _7
REMARK    5  A    between atoms: _12  and  _14
REMARK    6  A    between atoms: _14  and  _15
REMARK    7  A    between atoms: _17  and  _19
REMARK    8  A    between atoms: _19  and  _20
REMARK    9  A    between atoms: _19  and  _22
REMARK   10  A    between atoms: _22  and  _23
REMARK   11  A    between atoms: _23  and  _24
REMARK   12  A    between atoms: _29  and  _31
REMARK   13  A    between atoms: _31  and  _32
REMARK   14  A    between atoms: _31  and  _34
REMARK   15  A    between atoms: _34  and  _35
REMARK   16  A    between atoms: _38  and  _40
REMARK   17  A    between atoms: _40  and  _41
REMARK   18  A    between atoms: _40  and  _43
REMARK   19  A    between atoms: _43  and  _44
REMARK   20  A    between atoms: _44  and  _45
REMARK   21  A    between atoms: _48  and  _50
REMARK   22  A    between atoms: _50  and  _51
REMARK   23  A    between atoms: _53  and  _55
REMARK   24  A    between atoms: _55  and  _56
REMARK   25  A    between atoms: _55  and  _58
REMARK   26  A    between atoms: _62  and  _63
REMARK   27  A    between atoms: _68  and  _70
REMARK   28  A    between atoms: _70  and  _71
REMARK   29  A    between atoms: _70  and  _73
REMARK   30  A    between atoms: _73  and  _74
REMARK   31  A    between atoms: _74  and  _75
REMARK   32  A    between atoms: _78  and  _80
REMARK   33  A    between atoms: _80  and  _81
REMARK   34  A    between atoms: _80  and  _83
REMARK   35  A    between atoms: _83  and  _84
REMARK   36  A    between atoms: _86  and  _88
REMARK   37  A    between atoms: _88  and  _89
REMARK   38  A    between atoms: _88  and  _91
REMARK   39  A    between atoms: _91  and  _92
REMARK   40  A    between atoms: _97  and  _99
REMARK   41  A    between atoms: _99  and  _100
REMARK   42  A    between atoms: _99  and  _102
REMARK   43  A    between atoms: _102  and  _103
REMARK   44  A    between atoms: _103  and  _104
REMARK   45  A    between atoms: _104  and  _105
REMARK   46  A    between atoms: _115  and  _116
REMARK   47  A    between atoms: _121  and  _123
REMARK   48  A    between atoms: _123  and  _124
REMARK   49  A    between atoms: _123  and  _126
REMARK   50  A    between atoms: _126  and  _127
REMARK   51  A    between atoms: _132  and  _133
REMARK   52  A    between atoms: _135  and  _137
REMARK   53  A    between atoms: _137  and  _138
REMARK   54  A    between atoms: _137  and  _140
REMARK   55  A    between atoms: _140  and  _141
REMARK   56  A    between atoms: _146  and  _147
REMARK   57  A    between atoms: _149  and  _151
REMARK   58  A    between atoms: _151  and  _152
REMARK   59  A    between atoms: _151  and  _154
REMARK   60  A    between atoms: _157  and  _159
REMARK   61  A    between atoms: _159  and  _160
REMARK   62  A    between atoms: _159  and  _162
REMARK   63  A    between atoms: _162  and  _163
REMARK   64  A    between atoms: _169  and  _170
REMARK   65  A    between atoms: _175  and  _177
REMARK   66  A    between atoms: _177  and  _178
REMARK   67  A    between atoms: _177  and  _180
REMARK   68  A    between atoms: _180  and  _181
REMARK   69  A    between atoms: _183  and  _185
REMARK   70  A    between atoms: _185  and  _186
REMARK   71  A    between atoms: _185  and  _188
REMARK   72  A    between atoms: _188  and  _189
REMARK   73  A    between atoms: _189  and  _190
REMARK   74  A    between atoms: _193  and  _195
REMARK   75  A    between atoms: _195  and  _196
REMARK   76  A    between atoms: _195  and  _198
REMARK   77  A    between atoms: _198  and  _199
REMARK   78  A    between atoms: _204  and  _205
REMARK   79  A    between atoms: _207  and  _209
REMARK   80  A    between atoms: _209  and  _210
REMARK   81  A    between atoms: _209  and  _212
REMARK   82  A    between atoms: _212  and  _213
REMARK   83  A    between atoms: _218  and  _220
REMARK   84  A    between atoms: _220  and  _221
REMARK   85  A    between atoms: _220  and  _223
REMARK   86  A    between atoms: _223  and  _224
REMARK   87  A    between atoms: _229  and  _231
REMARK   88  A    between atoms: _231  and  _232
REMARK   89  A    between atoms: _231  and  _234
REMARK   90  A    between atoms: _234  and  _235
REMARK   91  A    between atoms: _235  and  _236
REMARK   92  A    between atoms: _238  and  _240
REMARK   93  A    between atoms: _240  and  _241
REMARK   94  A    between atoms: _240  and  _243
REMARK   95  A    between atoms: _243  and  _244
REMARK   96  A    between atoms: _249  and  _250
REMARK   97  A    between atoms: _252  and  _254
REMARK   98  A    between atoms: _254  and  _255
REMARK   99  A    between atoms: _254  and  _257
REMARK  100  A    between atoms: _257  and  _258
REMARK  101  A    between atoms: _261  and  _263
REMARK  102  A    between atoms: _263  and  _264
REMARK  103  A    between atoms: _263  and  _266
REMARK  104  A    between atoms: _266  and  _267
REMARK  105  A    between atoms: _267  and  _484
REMARK  106  A    between atoms: _268  and  _270
REMARK  107  A    between atoms: _270  and  _271
REMARK  108  A    between atoms: _270  and  _273
REMARK  109  A    between atoms: _273  and  _274
REMARK  110  A    between atoms: _277  and  _279
REMARK  111  A    between atoms: _279  and  _280
REMARK  112  A    between atoms: _279  and  _282
REMARK  113  A    between atoms: _282  and  _283
REMARK  114  A    between atoms: _288  and  _289
REMARK  115  A    between atoms: _291  and  _293
REMARK  116  A    between atoms: _293  and  _294
REMARK  117  A    between atoms: _293  and  _296
REMARK  118  A    between atoms: _296  and  _297
REMARK  119  A    between atoms: _302  and  _303
REMARK  120  A    between atoms: _305  and  _307
REMARK  121  A    between atoms: _307  and  _308
REMARK  122  A    between atoms: _307  and  _310
REMARK  123  A    between atoms: _310  and  _311
REMARK  124  A    between atoms: _311  and  _312
REMARK  125  A    between atoms: _315  and  _317
REMARK  126  A    between atoms: _317  and  _318
REMARK  127  A    between atoms: _317  and  _320
REMARK  128  A    between atoms: _320  and  _321
REMARK  129  A    between atoms: _326  and  _327
REMARK  130  A    between atoms: _329  and  _331
REMARK  131  A    between atoms: _331  and  _332
REMARK  132  A    between atoms: _331  and  _334
REMARK  133  A    between atoms: _334  and  _335
REMARK  134  A    between atoms: _340  and  _342
REMARK  135  A    between atoms: _342  and  _343
REMARK  136  A    between atoms: _342  and  _345
REMARK  137  A    between atoms: _345  and  _346
REMARK  138  A    between atoms: _349  and  _351
REMARK  139  A    between atoms: _351  and  _352
REMARK  140  A    between atoms: _351  and  _354
REMARK  141  A    between atoms: _354  and  _355
REMARK  142  A    between atoms: _360  and  _362
REMARK  143  A    between atoms: _362  and  _363
REMARK  144  A    between atoms: _362  and  _365
REMARK  145  A    between atoms: _365  and  _366
REMARK  146  A    between atoms: _376  and  _378
REMARK  147  A    between atoms: _378  and  _379
REMARK  148  A    between atoms: _378  and  _381
REMARK  149  A    between atoms: _381  and  _382
REMARK  150  A    between atoms: _388  and  _390
REMARK  151  A    between atoms: _390  and  _391
REMARK  152  A    between atoms: _390  and  _393
REMARK  153  A    between atoms: _393  and  _394
REMARK  154  A    between atoms: _397  and  _399
REMARK  155  A    between atoms: _399  and  _400
REMARK  156  A    between atoms: _399  and  _402
REMARK  157  A    between atoms: _402  and  _403
REMARK  158  A    between atoms: _406  and  _408
REMARK  159  A    between atoms: _408  and  _409
REMARK  160  A    between atoms: _408  and  _411
REMARK  161  A    between atoms: _411  and  _412
REMARK  162  A    between atoms: _412  and  _413
REMARK  163  A    between atoms: _413  and  _414
REMARK  164  A    between atoms: _423  and  _425
REMARK  165  A    between atoms: _425  and  _426
REMARK  166  A    between atoms: _425  and  _428
REMARK  167  A    between atoms: _428  and  _429
REMARK  168  A    between atoms: _434  and  _436
REMARK  169  A    between atoms: _436  and  _437
REMARK  170  A    between atoms: _436  and  _439
REMARK  171  A    between atoms: _439  and  _440
REMARK  172  A    between atoms: _441  and  _442
REMARK  173  A    between atoms: _451  and  _453
REMARK  174  A    between atoms: _453  and  _454
REMARK  175  A    between atoms: _457  and  _459
REMARK  176  A    between atoms: _459  and  _460
REMARK  177  A    between atoms: _462  and  _464
REMARK  178  A    between atoms: _464  and  _465
REMARK  179  A    between atoms: _464  and  _467
REMARK  180  A    between atoms: _467  and  _468
REMARK  181  A    between atoms: _478  and  _480
REMARK  182  A    between atoms: _480  and  _481
REMARK  183  A    between atoms: _480  and  _483
REMARK  184  A    between atoms: _483  and  _484
REMARK  185  A    between atoms: _485  and  _487
REMARK  186  A    between atoms: _487  and  _488
REMARK  187  A    between atoms: _491  and  _493
REMARK  188  A    between atoms: _493  and  _494
REMARK  189  A    between atoms: _493  and  _496
REMARK  190  A    between atoms: _496  and  _497
REMARK  191  A    between atoms: _500  and  _502
REMARK  192  A    between atoms: _502  and  _503
REMARK  193  A    between atoms: _502  and  _505
REMARK  194  A    between atoms: _505  and  _506
REMARK  195  A    between atoms: _511  and  _512
REMARK  196  A    between atoms: _514  and  _516
REMARK  197  A    between atoms: _516  and  _517
REMARK  198  A    between atoms: _516  and  _519
REMARK  199  A    between atoms: _519  and  _520
REMARK  200  A    between atoms: _522  and  _524
REMARK  201  A    between atoms: _524  and  _525
REMARK  202  A    between atoms: _524  and  _527
REMARK  203  A    between atoms: _527  and  _528
REMARK  204  A    between atoms: _534  and  _536
REMARK  205  A    between atoms: _536  and  _537
REMARK  206  A    between atoms: _536  and  _539
REMARK  207  A    between atoms: _539  and  _540
REMARK  208  A    between atoms: _543  and  _545
REMARK  209  A    between atoms: _545  and  _546
REMARK  210  A    between atoms: _545  and  _548
REMARK  211  A    between atoms: _548  and  _549
REMARK  212  A    between atoms: _551  and  _553
REMARK  213  A    between atoms: _553  and  _554
REMARK  214  A    between atoms: _553  and  _556
REMARK  215  A    between atoms: _556  and  _557
REMARK  216  A    between atoms: _562  and  _564
REMARK  217  A    between atoms: _564  and  _565
REMARK  218  A    between atoms: _564  and  _567
REMARK  219  A    between atoms: _567  and  _568
REMARK  220  A    between atoms: _571  and  _573
REMARK  221  A    between atoms: _573  and  _574
REMARK  222  A    between atoms: _573  and  _576
REMARK  223  A    between atoms: _576  and  _577
REMARK  224  A    between atoms: _582  and  _583
REMARK  225  A    between atoms: _585  and  _587
REMARK  226  A    between atoms: _587  and  _588
REMARK  227  A    between atoms: _587  and  _590
REMARK  228  A    between atoms: _590  and  _591
REMARK  229  A    between atoms: _596  and  _597
REMARK  230  A    between atoms: _599  and  _601
REMARK  231  A    between atoms: _601  and  _602
REMARK  232  A    between atoms: _601  and  _604
REMARK  233  A    between atoms: _607  and  _609
REMARK  234  A    between atoms: _609  and  _610
REMARK  235  A    between atoms: _609  and  _612
REMARK  236  A    between atoms: _612  and  _613
REMARK  237  A    between atoms: _618  and  _620
REMARK  238  A    between atoms: _620  and  _621
REMARK  239  A    between atoms: _624  and  _626
REMARK  240  A    between atoms: _626  and  _627
REMARK  241  A    between atoms: _626  and  _629
REMARK  242  A    between atoms: _629  and  _630
REMARK  243  A    between atoms: _630  and  _631
REMARK  244  A    between atoms: _631  and  _632
REMARK  245  A    between atoms: _641  and  _643
REMARK  246  A    between atoms: _643  and  _644
REMARK  247  A    between atoms: _643  and  _646
REMARK  248  A    between atoms: _646  and  _647
REMARK  249  A    between atoms: _650  and  _652
REMARK  250  A    between atoms: _652  and  _653
REMARK  251  A    between atoms: _652  and  _655
REMARK  252  A    between atoms: _655  and  _656
REMARK  253  A    between atoms: _659  and  _661
REMARK  254  A    between atoms: _661  and  _662
REMARK  255  A    between atoms: _661  and  _664
REMARK  256  A    between atoms: _664  and  _665
REMARK                            x       y       z     vdW  Elec       q    Type
REMARK                         _______ _______ _______ _____ _____    ______ ____
ROOT
ATOM      1  O   HOH     1      -4.929  25.366  12.451  0.00  0.00    +0.000 OA
ENDROOT
TORSDOF 0
REMARK  Name = ../refined-set-2016/1b6h/1b6h_pocket.pdb
REMARK  256 active torsions:
REMARK  status: ('A' for Active; 'I' for Inactive)
REMARK    1  A    between atoms: _1  and  _3
REMARK    2  A    between atoms: _3  and  _4
REMARK    3  A    between atoms: _3  and  _6
REMARK    4  A    between atoms: _6  and  _7
REMARK    5  A    between atoms: _12  and  _14
REMARK    6  A    between atoms: _14  and  _15
REMARK    7  A    between atoms: _17  and  _19
REMARK    8  A    between atoms: _19  and  _20
REMARK    9  A    between atoms: _19  and  _22
REMARK   10  A    between atoms: _22  and  _23
REMARK   11  A    between atoms: _23  and  _24
REMARK   12  A    between atoms: _29  and  _31
REMARK   13  A    between atoms: _31  and  _32
REMARK   14  A    between atoms: _31  and  _34
REMARK   15  A    between atoms: _34  and  _35
REMARK   16  A    between atoms: _38  and  _40
REMARK   17  A    between atoms: _40  and  _41
REMARK   18  A    between atoms: _40  and  _43
REMARK   19  A    between atoms: _43  and  _44
REMARK   20  A    between atoms: _44  and  _45
REMARK   21  A    between atoms: _48  and  _50
REMARK   22  A    between atoms: _50  and  _51
REMARK   23  A    between atoms: _53  and  _55
REMARK   24  A    between atoms: _55  and  _56
REMARK   25  A    between atoms: _55  and  _58
REMARK   26  A    between atoms: _62  and  _63
REMARK   27  A    between atoms: _68  and  _70
REMARK   28  A    between atoms: _70  and  _71
REMARK   29  A    between atoms: _70  and  _73
REMARK   30  A    between atoms: _73  and  _74
REMARK   31  A    between atoms: _74  and  _75
REMARK   32  A    between atoms: _78  and  _80
REMARK   33  A    between atoms: _80  and  _81
REMARK   34  A    between atoms: _80  and  _83
REMARK   35  A    between atoms: _83  and  _84
REMARK   36  A    between atoms: _86  and  _88
REMARK   37  A    between atoms: _88  and  _89
REMARK   38  A    between atoms: _88  and  _91
REMARK   39  A    between atoms: _91  and  _92
REMARK   40  A    between atoms: _97  and  _99
REMARK   41  A    between atoms: _99  and  _100
REMARK   42  A    between atoms: _99  and  _102
REMARK   43  A    between atoms: _102  and  _103
REMARK   44  A    between atoms: _103  and  _104
REMARK   45  A    between atoms: _104  and  _105
REMARK   46  A    between atoms: _115  and  _116
REMARK   47  A    between atoms: _121  and  _123
REMARK   48  A    between atoms: _123  and  _124
REMARK   49  A    between atoms: _123  and  _126
REMARK   50  A    between atoms: _126  and  _127
REMARK   51  A    between atoms: _132  and  _133
REMARK   52  A    between atoms: _135  and  _137
REMARK   53  A    between atoms: _137  and  _138
REMARK   54  A    between atoms: _137  and  _140
REMARK   55  A    between atoms: _140  and  _141
REMARK   56  A    between atoms: _146  and  _147
REMARK   57  A    between atoms: _149  and  _151
REMARK   58  A    between atoms: _151  and  _152
REMARK   59  A    between atoms: _151  and  _154
REMARK   60  A    between atoms: _157  and  _159
REMARK   61  A    between atoms: _159  and  _160
REMARK   62  A    between atoms: _159  and  _162
REMARK   63  A    between atoms: _162  and  _163
REMARK   64  A    between atoms: _169  and  _170
REMARK   65  A    between atoms: _175  and  _177
REMARK   66  A    between atoms: _177  and  _178
REMARK   67  A    between atoms: _177  and  _180
REMARK   68  A    between atoms: _180  and  _181
REMARK   69  A    between atoms: _183  and  _185
REMARK   70  A    between atoms: _185  and  _186
REMARK   71  A    between atoms: _185  and  _188
REMARK   72  A    between atoms: _188  and  _189
REMARK   73  A    between atoms: _189  and  _190
REMARK   74  A    between atoms: _193  and  _195
REMARK   75  A    between atoms: _195  and  _196
REMARK   76  A    between atoms: _195  and  _198
REMARK   77  A    between atoms: _198  and  _199
REMARK   78  A    between atoms: _204  and  _205
REMARK   79  A    between atoms: _207  and  _209
REMARK   80  A    between atoms: _209  and  _210
REMARK   81  A    between atoms: _209  and  _212
REMARK   82  A    between atoms: _212  and  _213
REMARK   83  A    between atoms: _218  and  _220
REMARK   84  A    between atoms: _220  and  _221
REMARK   85  A    between atoms: _220  and  _223
REMARK   86  A    between atoms: _223  and  _224
REMARK   87  A    between atoms: _229  and  _231
REMARK   88  A    between atoms: _231  and  _232
REMARK   89  A    between atoms: _231  and  _234
REMARK   90  A    between atoms: _234  and  _235
REMARK   91  A    between atoms: _235  and  _236
REMARK   92  A    between atoms: _238  and  _240
REMARK   93  A    between atoms: _240  and  _241
REMARK   94  A    between atoms: _240  and  _243
REMARK   95  A    between atoms: _243  and  _244
REMARK   96  A    between atoms: _249  and  _250
REMARK   97  A    between atoms: _252  and  _254
REMARK   98  A    between atoms: _254  and  _255
REMARK   99  A    between atoms: _254  and  _257
REMARK  100  A    between atoms: _257  and  _258
REMARK  101  A    between atoms: _261  and  _263
REMARK  102  A    between atoms: _263  and  _264
REMARK  103  A    between atoms: _263  and  _266
REMARK  104  A    between atoms: _266  and  _267
REMARK  105  A    between atoms: _267  and  _484
REMARK  106  A    between atoms: _268  and  _270
REMARK  107  A    between atoms: _270  and  _271
REMARK  108  A    between atoms: _270  and  _273
REMARK  109  A    between atoms: _273  and  _274
REMARK  110  A    between atoms: _277  and  _279
REMARK  111  A    between atoms: _279  and  _280
REMARK  112  A    between atoms: _279  and  _282
REMARK  113  A    between atoms: _282  and  _283
REMARK  114  A    between atoms: _288  and  _289
REMARK  115  A    between atoms: _291  and  _293
REMARK  116  A    between atoms: _293  and  _294
REMARK  117  A    between atoms: _293  and  _296
REMARK  118  A    between atoms: _296  and  _297
REMARK  119  A    between atoms: _302  and  _303
REMARK  120  A    between atoms: _305  and  _307
REMARK  121  A    between atoms: _307  and  _308
REMARK  122  A    between atoms: _307  and  _310
REMARK  123  A    between atoms: _310  and  _311
REMARK  124  A    between atoms: _311  and  _312
REMARK  125  A    between atoms: _315  and  _317
REMARK  126  A    between atoms: _317  and  _318
REMARK  127  A    between atoms: _317  and  _320
REMARK  128  A    between atoms: _320  and  _321
REMARK  129  A    between atoms: _326  and  _327
REMARK  130  A    between atoms: _329  and  _331
REMARK  131  A    between atoms: _331  and  _332
REMARK  132  A    between atoms: _331  and  _334
REMARK  133  A    between atoms: _334  and  _335
REMARK  134  A    between atoms: _340  and  _342
REMARK  135  A    between atoms: _342  and  _343
REMARK  136  A    between atoms: _342  and  _345
REMARK  137  A    between atoms: _345  and  _346
REMARK  138  A    between atoms: _349  and  _351
REMARK  139  A    between atoms: _351  and  _352
REMARK  140  A    between atoms: _351  and  _354
REMARK  141  A    between atoms: _354  and  _355
REMARK  142  A    between atoms: _360  and  _362
REMARK  143  A    between atoms: _362  and  _363
REMARK  144  A    between atoms: _362  and  _365
REMARK  145  A    between atoms: _365  and  _366
REMARK  146  A    between atoms: _376  and  _378
REMARK  147  A    between atoms: _378  and  _379
REMARK  148  A    between atoms: _378  and  _381
REMARK  149  A    between atoms: _381  and  _382
REMARK  150  A    between atoms: _388  and  _390
REMARK  151  A    between atoms: _390  and  _391
REMARK  152  A    between atoms: _390  and  _393
REMARK  153  A    between atoms: _393  and  _394
REMARK  154  A    between atoms: _397  and  _399
REMARK  155  A    between atoms: _399  and  _400
REMARK  156  A    between atoms: _399  and  _402
REMARK  157  A    between atoms: _402  and  _403
REMARK  158  A    between atoms: _406  and  _408
REMARK  159  A    between atoms: _408  and  _409
REMARK  160  A    between atoms: _408  and  _411
REMARK  161  A    between atoms: _411  and  _412
REMARK  162  A    between atoms: _412  and  _413
REMARK  163  A    between atoms: _413  and  _414
REMARK  164  A    between atoms: _423  and  _425
REMARK  165  A    between atoms: _425  and  _426
REMARK  166  A    between atoms: _425  and  _428
REMARK  167  A    between atoms: _428  and  _429
REMARK  168  A    between atoms: _434  and  _436
REMARK  169  A    between atoms: _436  and  _437
REMARK  170  A    between atoms: _436  and  _439
REMARK  171  A    between atoms: _439  and  _440
REMARK  172  A    between atoms: _441  and  _442
REMARK  173  A    between atoms: _451  and  _453
REMARK  174  A    between atoms: _453  and  _454
REMARK  175  A    between atoms: _457  and  _459
REMARK  176  A    between atoms: _459  and  _460
REMARK  177  A    between atoms: _462  and  _464
REMARK  178  A    between atoms: _464  and  _465
REMARK  179  A    between atoms: _464  and  _467
REMARK  180  A    between atoms: _467  and  _468
REMARK  181  A    between atoms: _478  and  _480
REMARK  182  A    between atoms: _480  and  _481
REMARK  183  A    between atoms: _480  and  _483
REMARK  184  A    between atoms: _483  and  _484
REMARK  185  A    between atoms: _485  and  _487
REMARK  186  A    between atoms: _487  and  _488
REMARK  187  A    between atoms: _491  and  _493
REMARK  188  A    between atoms: _493  and  _494
REMARK  189  A    between atoms: _493  and  _496
REMARK  190  A    between atoms: _496  and  _497
REMARK  191  A    between atoms: _500  and  _502
REMARK  192  A    between atoms: _502  and  _503
REMARK  193  A    between atoms: _502  and  _505
REMARK  194  A    between atoms: _505  and  _506
REMARK  195  A    between atoms: _511  and  _512
REMARK  196  A    between atoms: _514  and  _516
REMARK  197  A    between atoms: _516  and  _517
REMARK  198  A    between atoms: _516  and  _519
REMARK  199  A    between atoms: _519  and  _520
REMARK  200  A    between atoms: _522  and  _524
REMARK  201  A    between atoms: _524  and  _525
REMARK  202  A    between atoms: _524  and  _527
REMARK  203  A    between atoms: _527  and  _528
REMARK  204  A    between atoms: _534  and  _536
REMARK  205  A    between atoms: _536  and  _537
REMARK  206  A    between atoms: _536  and  _539
REMARK  207  A    between atoms: _539  and  _540
REMARK  208  A    between atoms: _543  and  _545
REMARK  209  A    between atoms: _545  and  _546
REMARK  210  A    between atoms: _545  and  _548
REMARK  211  A    between atoms: _548  and  _549
REMARK  212  A    between atoms: _551  and  _553
REMARK  213  A    between atoms: _553  and  _554
REMARK  214  A    between atoms: _553  and  _556
REMARK  215  A    between atoms: _556  and  _557
REMARK  216  A    between atoms: _562  and  _564
REMARK  217  A    between atoms: _564  and  _565
REMARK  218  A    between atoms: _564  and  _567
REMARK  219  A    between atoms: _567  and  _568
REMARK  220  A    between atoms: _571  and  _573
REMARK  221  A    between atoms: _573  and  _574
REMARK  222  A    between atoms: _573  and  _576
REMARK  223  A    between atoms: _576  and  _577
REMARK  224  A    between atoms: _582  and  _583
REMARK  225  A    between atoms: _585  and  _587
REMARK  226  A    between atoms: _587  and  _588
REMARK  227  A    between atoms: _587  and  _590
REMARK  228  A    between atoms: _590  and  _591
REMARK  229  A    between atoms: _596  and  _597
REMARK  230  A    between atoms: _599  and  _601
REMARK  231  A    between atoms: _601  and  _602
REMARK  232  A    between atoms: _601  and  _604
REMARK  233  A    between atoms: _607  and  _609
REMARK  234  A    between atoms: _609  and  _610
REMARK  235  A    between atoms: _609  and  _612
REMARK  236  A    between atoms: _612  and  _613
REMARK  237  A    between atoms: _618  and  _620
REMARK  238  A    between atoms: _620  and  _621
REMARK  239  A    between atoms: _624  and  _626
REMARK  240  A    between atoms: _626  and  _627
REMARK  241  A    between atoms: _626  and  _629
REMARK  242  A    between atoms: _629  and  _630
REMARK  243  A    between atoms: _630  and  _631
REMARK  244  A    between atoms: _631  and  _632
REMARK  245  A    between atoms: _641  and  _643
REMARK  246  A    between atoms: _643  and  _644
REMARK  247  A    between atoms: _643  and  _646
REMARK  248  A    between atoms: _646  and  _647
REMARK  249  A    between atoms: _650  and  _652
REMARK  250  A    between atoms: _652  and  _653
REMARK  251  A    between atoms: _652  and  _655
REMARK  252  A    between atoms: _655  and  _656
REMARK  253  A    between atoms: _659  and  _661
REMARK  254  A    between atoms: _661  and  _662
REMARK  255  A    between atoms: _661  and  _664
REMARK  256  A    between atoms: _664  and  _665
REMARK                            x       y       z     vdW  Elec       q    Type
REMARK                         _______ _______ _______ _____ _____    ______ ____
ROOT
ATOM      1  O   HOH     1       4.409  13.645   9.331  0.00  0.00    +0.000 OA
ENDROOT
TORSDOF 0
REMARK  Name = ../refined-set-2016/1b6h/1b6h_pocket.pdb
REMARK  256 active torsions:
REMARK  status: ('A' for Active; 'I' for Inactive)
REMARK    1  A    between atoms: _1  and  _3
REMARK    2  A    between atoms: _3  and  _4
REMARK    3  A    between atoms: _3  and  _6
REMARK    4  A    between atoms: _6  and  _7
REMARK    5  A    between atoms: _12  and  _14
REMARK    6  A    between atoms: _14  and  _15
REMARK    7  A    between atoms: _17  and  _19
REMARK    8  A    between atoms: _19  and  _20
REMARK    9  A    between atoms: _19  and  _22
REMARK   10  A    between atoms: _22  and  _23
REMARK   11  A    between atoms: _23  and  _24
REMARK   12  A    between atoms: _29  and  _31
REMARK   13  A    between atoms: _31  and  _32
REMARK   14  A    between atoms: _31  and  _34
REMARK   15  A    between atoms: _34  and  _35
REMARK   16  A    between atoms: _38  and  _40
REMARK   17  A    between atoms: _40  and  _41
REMARK   18  A    between atoms: _40  and  _43
REMARK   19  A    between atoms: _43  and  _44
REMARK   20  A    between atoms: _44  and  _45
REMARK   21  A    between atoms: _48  and  _50
REMARK   22  A    between atoms: _50  and  _51
REMARK   23  A    between atoms: _53  and  _55
REMARK   24  A    between atoms: _55  and  _56
REMARK   25  A    between atoms: _55  and  _58
REMARK   26  A    between atoms: _62  and  _63
REMARK   27  A    between atoms: _68  and  _70
REMARK   28  A    between atoms: _70  and  _71
REMARK   29  A    between atoms: _70  and  _73
REMARK   30  A    between atoms: _73  and  _74
REMARK   31  A    between atoms: _74  and  _75
REMARK   32  A    between atoms: _78  and  _80
REMARK   33  A    between atoms: _80  and  _81
REMARK   34  A    between atoms: _80  and  _83
REMARK   35  A    between atoms: _83  and  _84
REMARK   36  A    between atoms: _86  and  _88
REMARK   37  A    between atoms: _88  and  _89
REMARK   38  A    between atoms: _88  and  _91
REMARK   39  A    between atoms: _91  and  _92
REMARK   40  A    between atoms: _97  and  _99
REMARK   41  A    between atoms: _99  and  _100
REMARK   42  A    between atoms: _99  and  _102
REMARK   43  A    between atoms: _102  and  _103
REMARK   44  A    between atoms: _103  and  _104
REMARK   45  A    between atoms: _104  and  _105
REMARK   46  A    between atoms: _115  and  _116
REMARK   47  A    between atoms: _121  and  _123
REMARK   48  A    between atoms: _123  and  _124
REMARK   49  A    between atoms: _123  and  _126
REMARK   50  A    between atoms: _126  and  _127
REMARK   51  A    between atoms: _132  and  _133
REMARK   52  A    between atoms: _135  and  _137
REMARK   53  A    between atoms: _137  and  _138
REMARK   54  A    between atoms: _137  and  _140
REMARK   55  A    between atoms: _140  and  _141
REMARK   56  A    between atoms: _146  and  _147
REMARK   57  A    between atoms: _149  and  _151
REMARK   58  A    between atoms: _151  and  _152
REMARK   59  A    between atoms: _151  and  _154
REMARK   60  A    between atoms: _157  and  _159
REMARK   61  A    between atoms: _159  and  _160
REMARK   62  A    between atoms: _159  and  _162
REMARK   63  A    between atoms: _162  and  _163
REMARK   64  A    between atoms: _169  and  _170
REMARK   65  A    between atoms: _175  and  _177
REMARK   66  A    between atoms: _177  and  _178
REMARK   67  A    between atoms: _177  and  _180
REMARK   68  A    between atoms: _180  and  _181
REMARK   69  A    between atoms: _183  and  _185
REMARK   70  A    between atoms: _185  and  _186
REMARK   71  A    between atoms: _185  and  _188
REMARK   72  A    between atoms: _188  and  _189
REMARK   73  A    between atoms: _189  and  _190
REMARK   74  A    between atoms: _193  and  _195
REMARK   75  A    between atoms: _195  and  _196
REMARK   76  A    between atoms: _195  and  _198
REMARK   77  A    between atoms: _198  and  _199
REMARK   78  A    between atoms: _204  and  _205
REMARK   79  A    between atoms: _207  and  _209
REMARK   80  A    between atoms: _209  and  _210
REMARK   81  A    between atoms: _209  and  _212
REMARK   82  A    between atoms: _212  and  _213
REMARK   83  A    between atoms: _218  and  _220
REMARK   84  A    between atoms: _220  and  _221
REMARK   85  A    between atoms: _220  and  _223
REMARK   86  A    between atoms: _223  and  _224
REMARK   87  A    between atoms: _229  and  _231
REMARK   88  A    between atoms: _231  and  _232
REMARK   89  A    between atoms: _231  and  _234
REMARK   90  A    between atoms: _234  and  _235
REMARK   91  A    between atoms: _235  and  _236
REMARK   92  A    between atoms: _238  and  _240
REMARK   93  A    between atoms: _240  and  _241
REMARK   94  A    between atoms: _240  and  _243
REMARK   95  A    between atoms: _243  and  _244
REMARK   96  A    between atoms: _249  and  _250
REMARK   97  A    between atoms: _252  and  _254
REMARK   98  A    between atoms: _254  and  _255
REMARK   99  A    between atoms: _254  and  _257
REMARK  100  A    between atoms: _257  and  _258
REMARK  101  A    between atoms: _261  and  _263
REMARK  102  A    between atoms: _263  and  _264
REMARK  103  A    between atoms: _263  and  _266
REMARK  104  A    between atoms: _266  and  _267
REMARK  105  A    between atoms: _267  and  _484
REMARK  106  A    between atoms: _268  and  _270
REMARK  107  A    between atoms: _270  and  _271
REMARK  108  A    between atoms: _270  and  _273
REMARK  109  A    between atoms: _273  and  _274
REMARK  110  A    between atoms: _277  and  _279
REMARK  111  A    between atoms: _279  and  _280
REMARK  112  A    between atoms: _279  and  _282
REMARK  113  A    between atoms: _282  and  _283
REMARK  114  A    between atoms: _288  and  _289
REMARK  115  A    between atoms: _291  and  _293
REMARK  116  A    between atoms: _293  and  _294
REMARK  117  A    between atoms: _293  and  _296
REMARK  118  A    between atoms: _296  and  _297
REMARK  119  A    between atoms: _302  and  _303
REMARK  120  A    between atoms: _305  and  _307
REMARK  121  A    between atoms: _307  and  _308
REMARK  122  A    between atoms: _307  and  _310
REMARK  123  A    between atoms: _310  and  _311
REMARK  124  A    between atoms: _311  and  _312
REMARK  125  A    between atoms: _315  and  _317
REMARK  126  A    between atoms: _317  and  _318
REMARK  127  A    between atoms: _317  and  _320
REMARK  128  A    between atoms: _320  and  _321
REMARK  129  A    between atoms: _326  and  _327
REMARK  130  A    between atoms: _329  and  _331
REMARK  131  A    between atoms: _331  and  _332
REMARK  132  A    between atoms: _331  and  _334
REMARK  133  A    between atoms: _334  and  _335
REMARK  134  A    between atoms: _340  and  _342
REMARK  135  A    between atoms: _342  and  _343
REMARK  136  A    between atoms: _342  and  _345
REMARK  137  A    between atoms: _345  and  _346
REMARK  138  A    between atoms: _349  and  _351
REMARK  139  A    between atoms: _351  and  _352
REMARK  140  A    between atoms: _351  and  _354
REMARK  141  A    between atoms: _354  and  _355
REMARK  142  A    between atoms: _360  and  _362
REMARK  143  A    between atoms: _362  and  _363
REMARK  144  A    between atoms: _362  and  _365
REMARK  145  A    between atoms: _365  and  _366
REMARK  146  A    between atoms: _376  and  _378
REMARK  147  A    between atoms: _378  and  _379
REMARK  148  A    between atoms: _378  and  _381
REMARK  149  A    between atoms: _381  and  _382
REMARK  150  A    between atoms: _388  and  _390
REMARK  151  A    between atoms: _390  and  _391
REMARK  152  A    between atoms: _390  and  _393
REMARK  153  A    between atoms: _393  and  _394
REMARK  154  A    between atoms: _397  and  _399
REMARK  155  A    between atoms: _399  and  _400
REMARK  156  A    between atoms: _399  and  _402
REMARK  157  A    between atoms: _402  and  _403
REMARK  158  A    between atoms: _406  and  _408
REMARK  159  A    between atoms: _408  and  _409
REMARK  160  A    between atoms: _408  and  _411
REMARK  161  A    between atoms: _411  and  _412
REMARK  162  A    between atoms: _412  and  _413
REMARK  163  A    between atoms: _413  and  _414
REMARK  164  A    between atoms: _423  and  _425
REMARK  165  A    between atoms: _425  and  _426
REMARK  166  A    between atoms: _425  and  _428
REMARK  167  A    between atoms: _428  and  _429
REMARK  168  A    between atoms: _434  and  _436
REMARK  169  A    between atoms: _436  and  _437
REMARK  170  A    between atoms: _436  and  _439
REMARK  171  A    between atoms: _439  and  _440
REMARK  172  A    between atoms: _441  and  _442
REMARK  173  A    between atoms: _451  and  _453
REMARK  174  A    between atoms: _453  and  _454
REMARK  175  A    between atoms: _457  and  _459
REMARK  176  A    between atoms: _459  and  _460
REMARK  177  A    between atoms: _462  and  _464
REMARK  178  A    between atoms: _464  and  _465
REMARK  179  A    between atoms: _464  and  _467
REMARK  180  A    between atoms: _467  and  _468
REMARK  181  A    between atoms: _478  and  _480
REMARK  182  A    between atoms: _480  and  _481
REMARK  183  A    between atoms: _480  and  _483
REMARK  184  A    between atoms: _483  and  _484
REMARK  185  A    between atoms: _485  and  _487
REMARK  186  A    between atoms: _487  and  _488
REMARK  187  A    between atoms: _491  and  _493
REMARK  188  A    between atoms: _493  and  _494
REMARK  189  A    between atoms: _493  and  _496
REMARK  190  A    between atoms: _496  and  _497
REMARK  191  A    between atoms: _500  and  _502
REMARK  192  A    between atoms: _502  and  _503
REMARK  193  A    between atoms: _502  and  _505
REMARK  194  A    between atoms: _505  and  _506
REMARK  195  A    between atoms: _511  and  _512
REMARK  196  A    between atoms: _514  and  _516
REMARK  197  A    between atoms: _516  and  _517
REMARK  198  A    between atoms: _516  and  _519
REMARK  199  A    between atoms: _519  and  _520
REMARK  200  A    between atoms: _522  and  _524
REMARK  201  A    between atoms: _524  and  _525
REMARK  202  A    between atoms: _524  and  _527
REMARK  203  A    between atoms: _527  and  _528
REMARK  204  A    between atoms: _534  and  _536
REMARK  205  A    between atoms: _536  and  _537
REMARK  206  A    between atoms: _536  and  _539
REMARK  207  A    between atoms: _539  and  _540
REMARK  208  A    between atoms: _543  and  _545
REMARK  209  A    between atoms: _545  and  _546
REMARK  210  A    between atoms: _545  and  _548
REMARK  211  A    between atoms: _548  and  _549
REMARK  212  A    between atoms: _551  and  _553
REMARK  213  A    between atoms: _553  and  _554
REMARK  214  A    between atoms: _553  and  _556
REMARK  215  A    between atoms: _556  and  _557
REMARK  216  A    between atoms: _562  and  _564
REMARK  217  A    between atoms: _564  and  _565
REMARK  218  A    between atoms: _564  and  _567
REMARK  219  A    between atoms: _567  and  _568
REMARK  220  A    between atoms: _571  and  _573
REMARK  221  A    between atoms: _573  and  _574
REMARK  222  A    between atoms: _573  and  _576
REMARK  223  A    between atoms: _576  and  _577
REMARK  224  A    between atoms: _582  and  _583
REMARK  225  A    between atoms: _585  and  _587
REMARK  226  A    between atoms: _587  and  _588
REMARK  227  A    between atoms: _587  and  _590
REMARK  228  A    between atoms: _590  and  _591
REMARK  229  A    between atoms: _596  and  _597
REMARK  230  A    between atoms: _599  and  _601
REMARK  231  A    between atoms: _601  and  _602
REMARK  232  A    between atoms: _601  and  _604
REMARK  233  A    between atoms: _607  and  _609
REMARK  234  A    between atoms: _609  and  _610
REMARK  235  A    between atoms: _609  and  _612
REMARK  236  A    between atoms: _612  and  _613
REMARK  237  A    between atoms: _618  and  _620
REMARK  238  A    between atoms: _620  and  _621
REMARK  239  A    between atoms: _624  and  _626
REMARK  240  A    between atoms: _626  and  _627
REMARK  241  A    between atoms: _626  and  _629
REMARK  242  A    between atoms: _629  and  _630
REMARK  243  A    between atoms: _630  and  _631
REMARK  244  A    between atoms: _631  and  _632
REMARK  245  A    between atoms: _641  and  _643
REMARK  246  A    between atoms: _643  and  _644
REMARK  247  A    between atoms: _643  and  _646
REMARK  248  A    between atoms: _646  and  _647
REMARK  249  A    between atoms: _650  and  _652
REMARK  250  A    between atoms: _652  and  _653
REMARK  251  A    between atoms: _652  and  _655
REMARK  252  A    between atoms: _655  and  _656
REMARK  253  A    between atoms: _659  and  _661
REMARK  254  A    between atoms: _661  and  _662
REMARK  255  A    between atoms: _661  and  _664
REMARK  256  A    between atoms: _664  and  _665
REMARK                            x       y       z     vdW  Elec       q    Type
REMARK                         _______ _______ _______ _____ _____    ______ ____
ROOT
ATOM      1  O   HOH     1       5.909   8.089   7.446  0.00  0.00    +0.000 OA
ENDROOT
TORSDOF 0
REMARK  Name = ../refined-set-2016/1b6h/1b6h_pocket.pdb
REMARK  256 active torsions:
REMARK  status: ('A' for Active; 'I' for Inactive)
REMARK    1  A    between atoms: _1  and  _3
REMARK    2  A    between atoms: _3  and  _4
REMARK    3  A    between atoms: _3  and  _6
REMARK    4  A    between atoms: _6  and  _7
REMARK    5  A    between atoms: _12  and  _14
REMARK    6  A    between atoms: _14  and  _15
REMARK    7  A    between atoms: _17  and  _19
REMARK    8  A    between atoms: _19  and  _20
REMARK    9  A    between atoms: _19  and  _22
REMARK   10  A    between atoms: _22  and  _23
REMARK   11  A    between atoms: _23  and  _24
REMARK   12  A    between atoms: _29  and  _31
REMARK   13  A    between atoms: _31  and  _32
REMARK   14  A    between atoms: _31  and  _34
REMARK   15  A    between atoms: _34  and  _35
REMARK   16  A    between atoms: _38  and  _40
REMARK   17  A    between atoms: _40  and  _41
REMARK   18  A    between atoms: _40  and  _43
REMARK   19  A    between atoms: _43  and  _44
REMARK   20  A    between atoms: _44  and  _45
REMARK   21  A    between atoms: _48  and  _50
REMARK   22  A    between atoms: _50  and  _51
REMARK   23  A    between atoms: _53  and  _55
REMARK   24  A    between atoms: _55  and  _56
REMARK   25  A    between atoms: _55  and  _58
REMARK   26  A    between atoms: _62  and  _63
REMARK   27  A    between atoms: _68  and  _70
REMARK   28  A    between atoms: _70  and  _71
REMARK   29  A    between atoms: _70  and  _73
REMARK   30  A    between atoms: _73  and  _74
REMARK   31  A    between atoms: _74  and  _75
REMARK   32  A    between atoms: _78  and  _80
REMARK   33  A    between atoms: _80  and  _81
REMARK   34  A    between atoms: _80  and  _83
REMARK   35  A    between atoms: _83  and  _84
REMARK   36  A    between atoms: _86  and  _88
REMARK   37  A    between atoms: _88  and  _89
REMARK   38  A    between atoms: _88  and  _91
REMARK   39  A    between atoms: _91  and  _92
REMARK   40  A    between atoms: _97  and  _99
REMARK   41  A    between atoms: _99  and  _100
REMARK   42  A    between atoms: _99  and  _102
REMARK   43  A    between atoms: _102  and  _103
REMARK   44  A    between atoms: _103  and  _104
REMARK   45  A    between atoms: _104  and  _105
REMARK   46  A    between atoms: _115  and  _116
REMARK   47  A    between atoms: _121  and  _123
REMARK   48  A    between atoms: _123  and  _124
REMARK   49  A    between atoms: _123  and  _126
REMARK   50  A    between atoms: _126  and  _127
REMARK   51  A    between atoms: _132  and  _133
REMARK   52  A    between atoms: _135  and  _137
REMARK   53  A    between atoms: _137  and  _138
REMARK   54  A    between atoms: _137  and  _140
REMARK   55  A    between atoms: _140  and  _141
REMARK   56  A    between atoms: _146  and  _147
REMARK   57  A    between atoms: _149  and  _151
REMARK   58  A    between atoms: _151  and  _152
REMARK   59  A    between atoms: _151  and  _154
REMARK   60  A    between atoms: _157  and  _159
REMARK   61  A    between atoms: _159  and  _160
REMARK   62  A    between atoms: _159  and  _162
REMARK   63  A    between atoms: _162  and  _163
REMARK   64  A    between atoms: _169  and  _170
REMARK   65  A    between atoms: _175  and  _177
REMARK   66  A    between atoms: _177  and  _178
REMARK   67  A    between atoms: _177  and  _180
REMARK   68  A    between atoms: _180  and  _181
REMARK   69  A    between atoms: _183  and  _185
REMARK   70  A    between atoms: _185  and  _186
REMARK   71  A    between atoms: _185  and  _188
REMARK   72  A    between atoms: _188  and  _189
REMARK   73  A    between atoms: _189  and  _190
REMARK   74  A    between atoms: _193  and  _195
REMARK   75  A    between atoms: _195  and  _196
REMARK   76  A    between atoms: _195  and  _198
REMARK   77  A    between atoms: _198  and  _199
REMARK   78  A    between atoms: _204  and  _205
REMARK   79  A    between atoms: _207  and  _209
REMARK   80  A    between atoms: _209  and  _210
REMARK   81  A    between atoms: _209  and  _212
REMARK   82  A    between atoms: _212  and  _213
REMARK   83  A    between atoms: _218  and  _220
REMARK   84  A    between atoms: _220  and  _221
REMARK   85  A    between atoms: _220  and  _223
REMARK   86  A    between atoms: _223  and  _224
REMARK   87  A    between atoms: _229  and  _231
REMARK   88  A    between atoms: _231  and  _232
REMARK   89  A    between atoms: _231  and  _234
REMARK   90  A    between atoms: _234  and  _235
REMARK   91  A    between atoms: _235  and  _236
REMARK   92  A    between atoms: _238  and  _240
REMARK   93  A    between atoms: _240  and  _241
REMARK   94  A    between atoms: _240  and  _243
REMARK   95  A    between atoms: _243  and  _244
REMARK   96  A    between atoms: _249  and  _250
REMARK   97  A    between atoms: _252  and  _254
REMARK   98  A    between atoms: _254  and  _255
REMARK   99  A    between atoms: _254  and  _257
REMARK  100  A    between atoms: _257  and  _258
REMARK  101  A    between atoms: _261  and  _263
REMARK  102  A    between atoms: _263  and  _264
REMARK  103  A    between atoms: _263  and  _266
REMARK  104  A    between atoms: _266  and  _267
REMARK  105  A    between atoms: _267  and  _484
REMARK  106  A    between atoms: _268  and  _270
REMARK  107  A    between atoms: _270  and  _271
REMARK  108  A    between atoms: _270  and  _273
REMARK  109  A    between atoms: _273  and  _274
REMARK  110  A    between atoms: _277  and  _279
REMARK  111  A    between atoms: _279  and  _280
REMARK  112  A    between atoms: _279  and  _282
REMARK  113  A    between atoms: _282  and  _283
REMARK  114  A    between atoms: _288  and  _289
REMARK  115  A    between atoms: _291  and  _293
REMARK  116  A    between atoms: _293  and  _294
REMARK  117  A    between atoms: _293  and  _296
REMARK  118  A    between atoms: _296  and  _297
REMARK  119  A    between atoms: _302  and  _303
REMARK  120  A    between atoms: _305  and  _307
REMARK  121  A    between atoms: _307  and  _308
REMARK  122  A    between atoms: _307  and  _310
REMARK  123  A    between atoms: _310  and  _311
REMARK  124  A    between atoms: _311  and  _312
REMARK  125  A    between atoms: _315  and  _317
REMARK  126  A    between atoms: _317  and  _318
REMARK  127  A    between atoms: _317  and  _320
REMARK  128  A    between atoms: _320  and  _321
REMARK  129  A    between atoms: _326  and  _327
REMARK  130  A    between atoms: _329  and  _331
REMARK  131  A    between atoms: _331  and  _332
REMARK  132  A    between atoms: _331  and  _334
REMARK  133  A    between atoms: _334  and  _335
REMARK  134  A    between atoms: _340  and  _342
REMARK  135  A    between atoms: _342  and  _343
REMARK  136  A    between atoms: _342  and  _345
REMARK  137  A    between atoms: _345  and  _346
REMARK  138  A    between atoms: _349  and  _351
REMARK  139  A    between atoms: _351  and  _352
REMARK  140  A    between atoms: _351  and  _354
REMARK  141  A    between atoms: _354  and  _355
REMARK  142  A    between atoms: _360  and  _362
REMARK  143  A    between atoms: _362  and  _363
REMARK  144  A    between atoms: _362  and  _365
REMARK  145  A    between atoms: _365  and  _366
REMARK  146  A    between atoms: _376  and  _378
REMARK  147  A    between atoms: _378  and  _379
REMARK  148  A    between atoms: _378  and  _381
REMARK  149  A    between atoms: _381  and  _382
REMARK  150  A    between atoms: _388  and  _390
REMARK  151  A    between atoms: _390  and  _391
REMARK  152  A    between atoms: _390  and  _393
REMARK  153  A    between atoms: _393  and  _394
REMARK  154  A    between atoms: _397  and  _399
REMARK  155  A    between atoms: _399  and  _400
REMARK  156  A    between atoms: _399  and  _402
REMARK  157  A    between atoms: _402  and  _403
REMARK  158  A    between atoms: _406  and  _408
REMARK  159  A    between atoms: _408  and  _409
REMARK  160  A    between atoms: _408  and  _411
REMARK  161  A    between atoms: _411  and  _412
REMARK  162  A    between atoms: _412  and  _413
REMARK  163  A    between atoms: _413  and  _414
REMARK  164  A    between atoms: _423  and  _425
REMARK  165  A    between atoms: _425  and  _426
REMARK  166  A    between atoms: _425  and  _428
REMARK  167  A    between atoms: _428  and  _429
REMARK  168  A    between atoms: _434  and  _436
REMARK  169  A    between atoms: _436  and  _437
REMARK  170  A    between atoms: _436  and  _439
REMARK  171  A    between atoms: _439  and  _440
REMARK  172  A    between atoms: _441  and  _442
REMARK  173  A    between atoms: _451  and  _453
REMARK  174  A    between atoms: _453  and  _454
REMARK  175  A    between atoms: _457  and  _459
REMARK  176  A    between atoms: _459  and  _460
REMARK  177  A    between atoms: _462  and  _464
REMARK  178  A    between atoms: _464  and  _465
REMARK  179  A    between atoms: _464  and  _467
REMARK  180  A    between atoms: _467  and  _468
REMARK  181  A    between atoms: _478  and  _480
REMARK  182  A    between atoms: _480  and  _481
REMARK  183  A    between atoms: _480  and  _483
REMARK  184  A    between atoms: _483  and  _484
REMARK  185  A    between atoms: _485  and  _487
REMARK  186  A    between atoms: _487  and  _488
REMARK  187  A    between atoms: _491  and  _493
REMARK  188  A    between atoms: _493  and  _494
REMARK  189  A    between atoms: _493  and  _496
REMARK  190  A    between atoms: _496  and  _497
REMARK  191  A    between atoms: _500  and  _502
REMARK  192  A    between atoms: _502  and  _503
REMARK  193  A    between atoms: _502  and  _505
REMARK  194  A    between atoms: _505  and  _506
REMARK  195  A    between atoms: _511  and  _512
REMARK  196  A    between atoms: _514  and  _516
REMARK  197  A    between atoms: _516  and  _517
REMARK  198  A    between atoms: _516  and  _519
REMARK  199  A    between atoms: _519  and  _520
REMARK  200  A    between atoms: _522  and  _524
REMARK  201  A    between atoms: _524  and  _525
REMARK  202  A    between atoms: _524  and  _527
REMARK  203  A    between atoms: _527  and  _528
REMARK  204  A    between atoms: _534  and  _536
REMARK  205  A    between atoms: _536  and  _537
REMARK  206  A    between atoms: _536  and  _539
REMARK  207  A    between atoms: _539  and  _540
REMARK  208  A    between atoms: _543  and  _545
REMARK  209  A    between atoms: _545  and  _546
REMARK  210  A    between atoms: _545  and  _548
REMARK  211  A    between atoms: _548  and  _549
REMARK  212  A    between atoms: _551  and  _553
REMARK  213  A    between atoms: _553  and  _554
REMARK  214  A    between atoms: _553  and  _556
REMARK  215  A    between atoms: _556  and  _557
REMARK  216  A    between atoms: _562  and  _564
REMARK  217  A    between atoms: _564  and  _565
REMARK  218  A    between atoms: _564  and  _567
REMARK  219  A    between atoms: _567  and  _568
REMARK  220  A    between atoms: _571  and  _573
REMARK  221  A    between atoms: _573  and  _574
REMARK  222  A    between atoms: _573  and  _576
REMARK  223  A    between atoms: _576  and  _577
REMARK  224  A    between atoms: _582  and  _583
REMARK  225  A    between atoms: _585  and  _587
REMARK  226  A    between atoms: _587  and  _588
REMARK  227  A    between atoms: _587  and  _590
REMARK  228  A    between atoms: _590  and  _591
REMARK  229  A    between atoms: _596  and  _597
REMARK  230  A    between atoms: _599  and  _601
REMARK  231  A    between atoms: _601  and  _602
REMARK  232  A    between atoms: _601  and  _604
REMARK  233  A    between atoms: _607  and  _609
REMARK  234  A    between atoms: _609  and  _610
REMARK  235  A    between atoms: _609  and  _612
REMARK  236  A    between atoms: _612  and  _613
REMARK  237  A    between atoms: _618  and  _620
REMARK  238  A    between atoms: _620  and  _621
REMARK  239  A    between atoms: _624  and  _626
REMARK  240  A    between atoms: _626  and  _627
REMARK  241  A    between atoms: _626  and  _629
REMARK  242  A    between atoms: _629  and  _630
REMARK  243  A    between atoms: _630  and  _631
REMARK  244  A    between atoms: _631  and  _632
REMARK  245  A    between atoms: _641  and  _643
REMARK  246  A    between atoms: _643  and  _644
REMARK  247  A    between atoms: _643  and  _646
REMARK  248  A    between atoms: _646  and  _647
REMARK  249  A    between atoms: _650  and  _652
REMARK  250  A    between atoms: _652  and  _653
REMARK  251  A    between atoms: _652  and  _655
REMARK  252  A    between atoms: _655  and  _656
REMARK  253  A    between atoms: _659  and  _661
REMARK  254  A    between atoms: _661  and  _662
REMARK  255  A    between atoms: _661  and  _664
REMARK  256  A    between atoms: _664  and  _665
REMARK                            x       y       z     vdW  Elec       q    Type
REMARK                         _______ _______ _______ _____ _____    ______ ____
ROOT
ATOM      1  O   HOH     1      -0.888  14.984   8.592  0.00  0.00    +0.000 OA
ENDROOT
TORSDOF 0
REMARK  Name = ../refined-set-2016/1b6h/1b6h_pocket.pdb
REMARK  256 active torsions:
REMARK  status: ('A' for Active; 'I' for Inactive)
REMARK    1  A    between atoms: _1  and  _3
REMARK    2  A    between atoms: _3  and  _4
REMARK    3  A    between atoms: _3  and  _6
REMARK    4  A    between atoms: _6  and  _7
REMARK    5  A    between atoms: _12  and  _14
REMARK    6  A    between atoms: _14  and  _15
REMARK    7  A    between atoms: _17  and  _19
REMARK    8  A    between atoms: _19  and  _20
REMARK    9  A    between atoms: _19  and  _22
REMARK   10  A    between atoms: _22  and  _23
REMARK   11  A    between atoms: _23  and  _24
REMARK   12  A    between atoms: _29  and  _31
REMARK   13  A    between atoms: _31  and  _32
REMARK   14  A    between atoms: _31  and  _34
REMARK   15  A    between atoms: _34  and  _35
REMARK   16  A    between atoms: _38  and  _40
REMARK   17  A    between atoms: _40  and  _41
REMARK   18  A    between atoms: _40  and  _43
REMARK   19  A    between atoms: _43  and  _44
REMARK   20  A    between atoms: _44  and  _45
REMARK   21  A    between atoms: _48  and  _50
REMARK   22  A    between atoms: _50  and  _51
REMARK   23  A    between atoms: _53  and  _55
REMARK   24  A    between atoms: _55  and  _56
REMARK   25  A    between atoms: _55  and  _58
REMARK   26  A    between atoms: _62  and  _63
REMARK   27  A    between atoms: _68  and  _70
REMARK   28  A    between atoms: _70  and  _71
REMARK   29  A    between atoms: _70  and  _73
REMARK   30  A    between atoms: _73  and  _74
REMARK   31  A    between atoms: _74  and  _75
REMARK   32  A    between atoms: _78  and  _80
REMARK   33  A    between atoms: _80  and  _81
REMARK   34  A    between atoms: _80  and  _83
REMARK   35  A    between atoms: _83  and  _84
REMARK   36  A    between atoms: _86  and  _88
REMARK   37  A    between atoms: _88  and  _89
REMARK   38  A    between atoms: _88  and  _91
REMARK   39  A    between atoms: _91  and  _92
REMARK   40  A    between atoms: _97  and  _99
REMARK   41  A    between atoms: _99  and  _100
REMARK   42  A    between atoms: _99  and  _102
REMARK   43  A    between atoms: _102  and  _103
REMARK   44  A    between atoms: _103  and  _104
REMARK   45  A    between atoms: _104  and  _105
REMARK   46  A    between atoms: _115  and  _116
REMARK   47  A    between atoms: _121  and  _123
REMARK   48  A    between atoms: _123  and  _124
REMARK   49  A    between atoms: _123  and  _126
REMARK   50  A    between atoms: _126  and  _127
REMARK   51  A    between atoms: _132  and  _133
REMARK   52  A    between atoms: _135  and  _137
REMARK   53  A    between atoms: _137  and  _138
REMARK   54  A    between atoms: _137  and  _140
REMARK   55  A    between atoms: _140  and  _141
REMARK   56  A    between atoms: _146  and  _147
REMARK   57  A    between atoms: _149  and  _151
REMARK   58  A    between atoms: _151  and  _152
REMARK   59  A    between atoms: _151  and  _154
REMARK   60  A    between atoms: _157  and  _159
REMARK   61  A    between atoms: _159  and  _160
REMARK   62  A    between atoms: _159  and  _162
REMARK   63  A    between atoms: _162  and  _163
REMARK   64  A    between atoms: _169  and  _170
REMARK   65  A    between atoms: _175  and  _177
REMARK   66  A    between atoms: _177  and  _178
REMARK   67  A    between atoms: _177  and  _180
REMARK   68  A    between atoms: _180  and  _181
REMARK   69  A    between atoms: _183  and  _185
REMARK   70  A    between atoms: _185  and  _186
REMARK   71  A    between atoms: _185  and  _188
REMARK   72  A    between atoms: _188  and  _189
REMARK   73  A    between atoms: _189  and  _190
REMARK   74  A    between atoms: _193  and  _195
REMARK   75  A    between atoms: _195  and  _196
REMARK   76  A    between atoms: _195  and  _198
REMARK   77  A    between atoms: _198  and  _199
REMARK   78  A    between atoms: _204  and  _205
REMARK   79  A    between atoms: _207  and  _209
REMARK   80  A    between atoms: _209  and  _210
REMARK   81  A    between atoms: _209  and  _212
REMARK   82  A    between atoms: _212  and  _213
REMARK   83  A    between atoms: _218  and  _220
REMARK   84  A    between atoms: _220  and  _221
REMARK   85  A    between atoms: _220  and  _223
REMARK   86  A    between atoms: _223  and  _224
REMARK   87  A    between atoms: _229  and  _231
REMARK   88  A    between atoms: _231  and  _232
REMARK   89  A    between atoms: _231  and  _234
REMARK   90  A    between atoms: _234  and  _235
REMARK   91  A    between atoms: _235  and  _236
REMARK   92  A    between atoms: _238  and  _240
REMARK   93  A    between atoms: _240  and  _241
REMARK   94  A    between atoms: _240  and  _243
REMARK   95  A    between atoms: _243  and  _244
REMARK   96  A    between atoms: _249  and  _250
REMARK   97  A    between atoms: _252  and  _254
REMARK   98  A    between atoms: _254  and  _255
REMARK   99  A    between atoms: _254  and  _257
REMARK  100  A    between atoms: _257  and  _258
REMARK  101  A    between atoms: _261  and  _263
REMARK  102  A    between atoms: _263  and  _264
REMARK  103  A    between atoms: _263  and  _266
REMARK  104  A    between atoms: _266  and  _267
REMARK  105  A    between atoms: _267  and  _484
REMARK  106  A    between atoms: _268  and  _270
REMARK  107  A    between atoms: _270  and  _271
REMARK  108  A    between atoms: _270  and  _273
REMARK  109  A    between atoms: _273  and  _274
REMARK  110  A    between atoms: _277  and  _279
REMARK  111  A    between atoms: _279  and  _280
REMARK  112  A    between atoms: _279  and  _282
REMARK  113  A    between atoms: _282  and  _283
REMARK  114  A    between atoms: _288  and  _289
REMARK  115  A    between atoms: _291  and  _293
REMARK  116  A    between atoms: _293  and  _294
REMARK  117  A    between atoms: _293  and  _296
REMARK  118  A    between atoms: _296  and  _297
REMARK  119  A    between atoms: _302  and  _303
REMARK  120  A    between atoms: _305  and  _307
REMARK  121  A    between atoms: _307  and  _308
REMARK  122  A    between atoms: _307  and  _310
REMARK  123  A    between atoms: _310  and  _311
REMARK  124  A    between atoms: _311  and  _312
REMARK  125  A    between atoms: _315  and  _317
REMARK  126  A    between atoms: _317  and  _318
REMARK  127  A    between atoms: _317  and  _320
REMARK  128  A    between atoms: _320  and  _321
REMARK  129  A    between atoms: _326  and  _327
REMARK  130  A    between atoms: _329  and  _331
REMARK  131  A    between atoms: _331  and  _332
REMARK  132  A    between atoms: _331  and  _334
REMARK  133  A    between atoms: _334  and  _335
REMARK  134  A    between atoms: _340  and  _342
REMARK  135  A    between atoms: _342  and  _343
REMARK  136  A    between atoms: _342  and  _345
REMARK  137  A    between atoms: _345  and  _346
REMARK  138  A    between atoms: _349  and  _351
REMARK  139  A    between atoms: _351  and  _352
REMARK  140  A    between atoms: _351  and  _354
REMARK  141  A    between atoms: _354  and  _355
REMARK  142  A    between atoms: _360  and  _362
REMARK  143  A    between atoms: _362  and  _363
REMARK  144  A    between atoms: _362  and  _365
REMARK  145  A    between atoms: _365  and  _366
REMARK  146  A    between atoms: _376  and  _378
REMARK  147  A    between atoms: _378  and  _379
REMARK  148  A    between atoms: _378  and  _381
REMARK  149  A    between atoms: _381  and  _382
REMARK  150  A    between atoms: _388  and  _390
REMARK  151  A    between atoms: _390  and  _391
REMARK  152  A    between atoms: _390  and  _393
REMARK  153  A    between atoms: _393  and  _394
REMARK  154  A    between atoms: _397  and  _399
REMARK  155  A    between atoms: _399  and  _400
REMARK  156  A    between atoms: _399  and  _402
REMARK  157  A    between atoms: _402  and  _403
REMARK  158  A    between atoms: _406  and  _408
REMARK  159  A    between atoms: _408  and  _409
REMARK  160  A    between atoms: _408  and  _411
REMARK  161  A    between atoms: _411  and  _412
REMARK  162  A    between atoms: _412  and  _413
REMARK  163  A    between atoms: _413  and  _414
REMARK  164  A    between atoms: _423  and  _425
REMARK  165  A    between atoms: _425  and  _426
REMARK  166  A    between atoms: _425  and  _428
REMARK  167  A    between atoms: _428  and  _429
REMARK  168  A    between atoms: _434  and  _436
REMARK  169  A    between atoms: _436  and  _437
REMARK  170  A    between atoms: _436  and  _439
REMARK  171  A    between atoms: _439  and  _440
REMARK  172  A    between atoms: _441  and  _442
REMARK  173  A    between atoms: _451  and  _453
REMARK  174  A    between atoms: _453  and  _454
REMARK  175  A    between atoms: _457  and  _459
REMARK  176  A    between atoms: _459  and  _460
REMARK  177  A    between atoms: _462  and  _464
REMARK  178  A    between atoms: _464  and  _465
REMARK  179  A    between atoms: _464  and  _467
REMARK  180  A    between atoms: _467  and  _468
REMARK  181  A    between atoms: _478  and  _480
REMARK  182  A    between atoms: _480  and  _481
REMARK  183  A    between atoms: _480  and  _483
REMARK  184  A    between atoms: _483  and  _484
REMARK  185  A    between atoms: _485  and  _487
REMARK  186  A    between atoms: _487  and  _488
REMARK  187  A    between atoms: _491  and  _493
REMARK  188  A    between atoms: _493  and  _494
REMARK  189  A    between atoms: _493  and  _496
REMARK  190  A    between atoms: _496  and  _497
REMARK  191  A    between atoms: _500  and  _502
REMARK  192  A    between atoms: _502  and  _503
REMARK  193  A    between atoms: _502  and  _505
REMARK  194  A    between atoms: _505  and  _506
REMARK  195  A    between atoms: _511  and  _512
REMARK  196  A    between atoms: _514  and  _516
REMARK  197  A    between atoms: _516  and  _517
REMARK  198  A    between atoms: _516  and  _519
REMARK  199  A    between atoms: _519  and  _520
REMARK  200  A    between atoms: _522  and  _524
REMARK  201  A    between atoms: _524  and  _525
REMARK  202  A    between atoms: _524  and  _527
REMARK  203  A    between atoms: _527  and  _528
REMARK  204  A    between atoms: _534  and  _536
REMARK  205  A    between atoms: _536  and  _537
REMARK  206  A    between atoms: _536  and  _539
REMARK  207  A    between atoms: _539  and  _540
REMARK  208  A    between atoms: _543  and  _545
REMARK  209  A    between atoms: _545  and  _546
REMARK  210  A    between atoms: _545  and  _548
REMARK  211  A    between atoms: _548  and  _549
REMARK  212  A    between atoms: _551  and  _553
REMARK  213  A    between atoms: _553  and  _554
REMARK  214  A    between atoms: _553  and  _556
REMARK  215  A    between atoms: _556  and  _557
REMARK  216  A    between atoms: _562  and  _564
REMARK  217  A    between atoms: _564  and  _565
REMARK  218  A    between atoms: _564  and  _567
REMARK  219  A    between atoms: _567  and  _568
REMARK  220  A    between atoms: _571  and  _573
REMARK  221  A    between atoms: _573  and  _574
REMARK  222  A    between atoms: _573  and  _576
REMARK  223  A    between atoms: _576  and  _577
REMARK  224  A    between atoms: _582  and  _583
REMARK  225  A    between atoms: _585  and  _587
REMARK  226  A    between atoms: _587  and  _588
REMARK  227  A    between atoms: _587  and  _590
REMARK  228  A    between atoms: _590  and  _591
REMARK  229  A    between atoms: _596  and  _597
REMARK  230  A    between atoms: _599  and  _601
REMARK  231  A    between atoms: _601  and  _602
REMARK  232  A    between atoms: _601  and  _604
REMARK  233  A    between atoms: _607  and  _609
REMARK  234  A    between atoms: _609  and  _610
REMARK  235  A    between atoms: _609  and  _612
REMARK  236  A    between atoms: _612  and  _613
REMARK  237  A    between atoms: _618  and  _620
REMARK  238  A    between atoms: _620  and  _621
REMARK  239  A    between atoms: _624  and  _626
REMARK  240  A    between atoms: _626  and  _627
REMARK  241  A    between atoms: _626  and  _629
REMARK  242  A    between atoms: _629  and  _630
REMARK  243  A    between atoms: _630  and  _631
REMARK  244  A    between atoms: _631  and  _632
REMARK  245  A    between atoms: _641  and  _643
REMARK  246  A    between atoms: _643  and  _644
REMARK  247  A    between atoms: _643  and  _646
REMARK  248  A    between atoms: _646  and  _647
REMARK  249  A    between atoms: _650  and  _652
REMARK  250  A    between atoms: _652  and  _653
REMARK  251  A    between atoms: _652  and  _655
REMARK  252  A    between atoms: _655  and  _656
REMARK  253  A    between atoms: _659  and  _661
REMARK  254  A    between atoms: _661  and  _662
REMARK  255  A    between atoms: _661  and  _664
REMARK  256  A    between atoms: _664  and  _665
REMARK                            x       y       z     vdW  Elec       q    Type
REMARK                         _______ _______ _______ _____ _____    ______ ____
ROOT
ATOM      1  O   HOH     1      -8.482  14.615  12.717  0.00  0.00    +0.000 OA
ENDROOT
TORSDOF 0
REMARK  Name = ../refined-set-2016/1b6h/1b6h_pocket.pdb
REMARK  256 active torsions:
REMARK  status: ('A' for Active; 'I' for Inactive)
REMARK    1  A    between atoms: _1  and  _3
REMARK    2  A    between atoms: _3  and  _4
REMARK    3  A    between atoms: _3  and  _6
REMARK    4  A    between atoms: _6  and  _7
REMARK    5  A    between atoms: _12  and  _14
REMARK    6  A    between atoms: _14  and  _15
REMARK    7  A    between atoms: _17  and  _19
REMARK    8  A    between atoms: _19  and  _20
REMARK    9  A    between atoms: _19  and  _22
REMARK   10  A    between atoms: _22  and  _23
REMARK   11  A    between atoms: _23  and  _24
REMARK   12  A    between atoms: _29  and  _31
REMARK   13  A    between atoms: _31  and  _32
REMARK   14  A    between atoms: _31  and  _34
REMARK   15  A    between atoms: _34  and  _35
REMARK   16  A    between atoms: _38  and  _40
REMARK   17  A    between atoms: _40  and  _41
REMARK   18  A    between atoms: _40  and  _43
REMARK   19  A    between atoms: _43  and  _44
REMARK   20  A    between atoms: _44  and  _45
REMARK   21  A    between atoms: _48  and  _50
REMARK   22  A    between atoms: _50  and  _51
REMARK   23  A    between atoms: _53  and  _55
REMARK   24  A    between atoms: _55  and  _56
REMARK   25  A    between atoms: _55  and  _58
REMARK   26  A    between atoms: _62  and  _63
REMARK   27  A    between atoms: _68  and  _70
REMARK   28  A    between atoms: _70  and  _71
REMARK   29  A    between atoms: _70  and  _73
REMARK   30  A    between atoms: _73  and  _74
REMARK   31  A    between atoms: _74  and  _75
REMARK   32  A    between atoms: _78  and  _80
REMARK   33  A    between atoms: _80  and  _81
REMARK   34  A    between atoms: _80  and  _83
REMARK   35  A    between atoms: _83  and  _84
REMARK   36  A    between atoms: _86  and  _88
REMARK   37  A    between atoms: _88  and  _89
REMARK   38  A    between atoms: _88  and  _91
REMARK   39  A    between atoms: _91  and  _92
REMARK   40  A    between atoms: _97  and  _99
REMARK   41  A    between atoms: _99  and  _100
REMARK   42  A    between atoms: _99  and  _102
REMARK   43  A    between atoms: _102  and  _103
REMARK   44  A    between atoms: _103  and  _104
REMARK   45  A    between atoms: _104  and  _105
REMARK   46  A    between atoms: _115  and  _116
REMARK   47  A    between atoms: _121  and  _123
REMARK   48  A    between atoms: _123  and  _124
REMARK   49  A    between atoms: _123  and  _126
REMARK   50  A    between atoms: _126  and  _127
REMARK   51  A    between atoms: _132  and  _133
REMARK   52  A    between atoms: _135  and  _137
REMARK   53  A    between atoms: _137  and  _138
REMARK   54  A    between atoms: _137  and  _140
REMARK   55  A    between atoms: _140  and  _141
REMARK   56  A    between atoms: _146  and  _147
REMARK   57  A    between atoms: _149  and  _151
REMARK   58  A    between atoms: _151  and  _152
REMARK   59  A    between atoms: _151  and  _154
REMARK   60  A    between atoms: _157  and  _159
REMARK   61  A    between atoms: _159  and  _160
REMARK   62  A    between atoms: _159  and  _162
REMARK   63  A    between atoms: _162  and  _163
REMARK   64  A    between atoms: _169  and  _170
REMARK   65  A    between atoms: _175  and  _177
REMARK   66  A    between atoms: _177  and  _178
REMARK   67  A    between atoms: _177  and  _180
REMARK   68  A    between atoms: _180  and  _181
REMARK   69  A    between atoms: _183  and  _185
REMARK   70  A    between atoms: _185  and  _186
REMARK   71  A    between atoms: _185  and  _188
REMARK   72  A    between atoms: _188  and  _189
REMARK   73  A    between atoms: _189  and  _190
REMARK   74  A    between atoms: _193  and  _195
REMARK   75  A    between atoms: _195  and  _196
REMARK   76  A    between atoms: _195  and  _198
REMARK   77  A    between atoms: _198  and  _199
REMARK   78  A    between atoms: _204  and  _205
REMARK   79  A    between atoms: _207  and  _209
REMARK   80  A    between atoms: _209  and  _210
REMARK   81  A    between atoms: _209  and  _212
REMARK   82  A    between atoms: _212  and  _213
REMARK   83  A    between atoms: _218  and  _220
REMARK   84  A    between atoms: _220  and  _221
REMARK   85  A    between atoms: _220  and  _223
REMARK   86  A    between atoms: _223  and  _224
REMARK   87  A    between atoms: _229  and  _231
REMARK   88  A    between atoms: _231  and  _232
REMARK   89  A    between atoms: _231  and  _234
REMARK   90  A    between atoms: _234  and  _235
REMARK   91  A    between atoms: _235  and  _236
REMARK   92  A    between atoms: _238  and  _240
REMARK   93  A    between atoms: _240  and  _241
REMARK   94  A    between atoms: _240  and  _243
REMARK   95  A    between atoms: _243  and  _244
REMARK   96  A    between atoms: _249  and  _250
REMARK   97  A    between atoms: _252  and  _254
REMARK   98  A    between atoms: _254  and  _255
REMARK   99  A    between atoms: _254  and  _257
REMARK  100  A    between atoms: _257  and  _258
REMARK  101  A    between atoms: _261  and  _263
REMARK  102  A    between atoms: _263  and  _264
REMARK  103  A    between atoms: _263  and  _266
REMARK  104  A    between atoms: _266  and  _267
REMARK  105  A    between atoms: _267  and  _484
REMARK  106  A    between atoms: _268  and  _270
REMARK  107  A    between atoms: _270  and  _271
REMARK  108  A    between atoms: _270  and  _273
REMARK  109  A    between atoms: _273  and  _274
REMARK  110  A    between atoms: _277  and  _279
REMARK  111  A    between atoms: _279  and  _280
REMARK  112  A    between atoms: _279  and  _282
REMARK  113  A    between atoms: _282  and  _283
REMARK  114  A    between atoms: _288  and  _289
REMARK  115  A    between atoms: _291  and  _293
REMARK  116  A    between atoms: _293  and  _294
REMARK  117  A    between atoms: _293  and  _296
REMARK  118  A    between atoms: _296  and  _297
REMARK  119  A    between atoms: _302  and  _303
REMARK  120  A    between atoms: _305  and  _307
REMARK  121  A    between atoms: _307  and  _308
REMARK  122  A    between atoms: _307  and  _310
REMARK  123  A    between atoms: _310  and  _311
REMARK  124  A    between atoms: _311  and  _312
REMARK  125  A    between atoms: _315  and  _317
REMARK  126  A    between atoms: _317  and  _318
REMARK  127  A    between atoms: _317  and  _320
REMARK  128  A    between atoms: _320  and  _321
REMARK  129  A    between atoms: _326  and  _327
REMARK  130  A    between atoms: _329  and  _331
REMARK  131  A    between atoms: _331  and  _332
REMARK  132  A    between atoms: _331  and  _334
REMARK  133  A    between atoms: _334  and  _335
REMARK  134  A    between atoms: _340  and  _342
REMARK  135  A    between atoms: _342  and  _343
REMARK  136  A    between atoms: _342  and  _345
REMARK  137  A    between atoms: _345  and  _346
REMARK  138  A    between atoms: _349  and  _351
REMARK  139  A    between atoms: _351  and  _352
REMARK  140  A    between atoms: _351  and  _354
REMARK  141  A    between atoms: _354  and  _355
REMARK  142  A    between atoms: _360  and  _362
REMARK  143  A    between atoms: _362  and  _363
REMARK  144  A    between atoms: _362  and  _365
REMARK  145  A    between atoms: _365  and  _366
REMARK  146  A    between atoms: _376  and  _378
REMARK  147  A    between atoms: _378  and  _379
REMARK  148  A    between atoms: _378  and  _381
REMARK  149  A    between atoms: _381  and  _382
REMARK  150  A    between atoms: _388  and  _390
REMARK  151  A    between atoms: _390  and  _391
REMARK  152  A    between atoms: _390  and  _393
REMARK  153  A    between atoms: _393  and  _394
REMARK  154  A    between atoms: _397  and  _399
REMARK  155  A    between atoms: _399  and  _400
REMARK  156  A    between atoms: _399  and  _402
REMARK  157  A    between atoms: _402  and  _403
REMARK  158  A    between atoms: _406  and  _408
REMARK  159  A    between atoms: _408  and  _409
REMARK  160  A    between atoms: _408  and  _411
REMARK  161  A    between atoms: _411  and  _412
REMARK  162  A    between atoms: _412  and  _413
REMARK  163  A    between atoms: _413  and  _414
REMARK  164  A    between atoms: _423  and  _425
REMARK  165  A    between atoms: _425  and  _426
REMARK  166  A    between atoms: _425  and  _428
REMARK  167  A    between atoms: _428  and  _429
REMARK  168  A    between atoms: _434  and  _436
REMARK  169  A    between atoms: _436  and  _437
REMARK  170  A    between atoms: _436  and  _439
REMARK  171  A    between atoms: _439  and  _440
REMARK  172  A    between atoms: _441  and  _442
REMARK  173  A    between atoms: _451  and  _453
REMARK  174  A    between atoms: _453  and  _454
REMARK  175  A    between atoms: _457  and  _459
REMARK  176  A    between atoms: _459  and  _460
REMARK  177  A    between atoms: _462  and  _464
REMARK  178  A    between atoms: _464  and  _465
REMARK  179  A    between atoms: _464  and  _467
REMARK  180  A    between atoms: _467  and  _468
REMARK  181  A    between atoms: _478  and  _480
REMARK  182  A    between atoms: _480  and  _481
REMARK  183  A    between atoms: _480  and  _483
REMARK  184  A    between atoms: _483  and  _484
REMARK  185  A    between atoms: _485  and  _487
REMARK  186  A    between atoms: _487  and  _488
REMARK  187  A    between atoms: _491  and  _493
REMARK  188  A    between atoms: _493  and  _494
REMARK  189  A    between atoms: _493  and  _496
REMARK  190  A    between atoms: _496  and  _497
REMARK  191  A    between atoms: _500  and  _502
REMARK  192  A    between atoms: _502  and  _503
REMARK  193  A    between atoms: _502  and  _505
REMARK  194  A    between atoms: _505  and  _506
REMARK  195  A    between atoms: _511  and  _512
REMARK  196  A    between atoms: _514  and  _516
REMARK  197  A    between atoms: _516  and  _517
REMARK  198  A    between atoms: _516  and  _519
REMARK  199  A    between atoms: _519  and  _520
REMARK  200  A    between atoms: _522  and  _524
REMARK  201  A    between atoms: _524  and  _525
REMARK  202  A    between atoms: _524  and  _527
REMARK  203  A    between atoms: _527  and  _528
REMARK  204  A    between atoms: _534  and  _536
REMARK  205  A    between atoms: _536  and  _537
REMARK  206  A    between atoms: _536  and  _539
REMARK  207  A    between atoms: _539  and  _540
REMARK  208  A    between atoms: _543  and  _545
REMARK  209  A    between atoms: _545  and  _546
REMARK  210  A    between atoms: _545  and  _548
REMARK  211  A    between atoms: _548  and  _549
REMARK  212  A    between atoms: _551  and  _553
REMARK  213  A    between atoms: _553  and  _554
REMARK  214  A    between atoms: _553  and  _556
REMARK  215  A    between atoms: _556  and  _557
REMARK  216  A    between atoms: _562  and  _564
REMARK  217  A    between atoms: _564  and  _565
REMARK  218  A    between atoms: _564  and  _567
REMARK  219  A    between atoms: _567  and  _568
REMARK  220  A    between atoms: _571  and  _573
REMARK  221  A    between atoms: _573  and  _574
REMARK  222  A    between atoms: _573  and  _576
REMARK  223  A    between atoms: _576  and  _577
REMARK  224  A    between atoms: _582  and  _583
REMARK  225  A    between atoms: _585  and  _587
REMARK  226  A    between atoms: _587  and  _588
REMARK  227  A    between atoms: _587  and  _590
REMARK  228  A    between atoms: _590  and  _591
REMARK  229  A    between atoms: _596  and  _597
REMARK  230  A    between atoms: _599  and  _601
REMARK  231  A    between atoms: _601  and  _602
REMARK  232  A    between atoms: _601  and  _604
REMARK  233  A    between atoms: _607  and  _609
REMARK  234  A    between atoms: _609  and  _610
REMARK  235  A    between atoms: _609  and  _612
REMARK  236  A    between atoms: _612  and  _613
REMARK  237  A    between atoms: _618  and  _620
REMARK  238  A    between atoms: _620  and  _621
REMARK  239  A    between atoms: _624  and  _626
REMARK  240  A    between atoms: _626  and  _627
REMARK  241  A    between atoms: _626  and  _629
REMARK  242  A    between atoms: _629  and  _630
REMARK  243  A    between atoms: _630  and  _631
REMARK  244  A    between atoms: _631  and  _632
REMARK  245  A    between atoms: _641  and  _643
REMARK  246  A    between atoms: _643  and  _644
REMARK  247  A    between atoms: _643  and  _646
REMARK  248  A    between atoms: _646  and  _647
REMARK  249  A    between atoms: _650  and  _652
REMARK  250  A    between atoms: _652  and  _653
REMARK  251  A    between atoms: _652  and  _655
REMARK  252  A    between atoms: _655  and  _656
REMARK  253  A    between atoms: _659  and  _661
REMARK  254  A    between atoms: _661  and  _662
REMARK  255  A    between atoms: _661  and  _664
REMARK  256  A    between atoms: _664  and  _665
REMARK                            x       y       z     vdW  Elec       q    Type
REMARK                         _______ _______ _______ _____ _____    ______ ____
ROOT
ATOM      1  O   HOH     1      -1.863  21.855  12.778  0.00  0.00    +0.000 OA
ENDROOT
TORSDOF 0
REMARK  Name = ../refined-set-2016/1b6h/1b6h_pocket.pdb
REMARK  256 active torsions:
REMARK  status: ('A' for Active; 'I' for Inactive)
REMARK    1  A    between atoms: _1  and  _3
REMARK    2  A    between atoms: _3  and  _4
REMARK    3  A    between atoms: _3  and  _6
REMARK    4  A    between atoms: _6  and  _7
REMARK    5  A    between atoms: _12  and  _14
REMARK    6  A    between atoms: _14  and  _15
REMARK    7  A    between atoms: _17  and  _19
REMARK    8  A    between atoms: _19  and  _20
REMARK    9  A    between atoms: _19  and  _22
REMARK   10  A    between atoms: _22  and  _23
REMARK   11  A    between atoms: _23  and  _24
REMARK   12  A    between atoms: _29  and  _31
REMARK   13  A    between atoms: _31  and  _32
REMARK   14  A    between atoms: _31  and  _34
REMARK   15  A    between atoms: _34  and  _35
REMARK   16  A    between atoms: _38  and  _40
REMARK   17  A    between atoms: _40  and  _41
REMARK   18  A    between atoms: _40  and  _43
REMARK   19  A    between atoms: _43  and  _44
REMARK   20  A    between atoms: _44  and  _45
REMARK   21  A    between atoms: _48  and  _50
REMARK   22  A    between atoms: _50  and  _51
REMARK   23  A    between atoms: _53  and  _55
REMARK   24  A    between atoms: _55  and  _56
REMARK   25  A    between atoms: _55  and  _58
REMARK   26  A    between atoms: _62  and  _63
REMARK   27  A    between atoms: _68  and  _70
REMARK   28  A    between atoms: _70  and  _71
REMARK   29  A    between atoms: _70  and  _73
REMARK   30  A    between atoms: _73  and  _74
REMARK   31  A    between atoms: _74  and  _75
REMARK   32  A    between atoms: _78  and  _80
REMARK   33  A    between atoms: _80  and  _81
REMARK   34  A    between atoms: _80  and  _83
REMARK   35  A    between atoms: _83  and  _84
REMARK   36  A    between atoms: _86  and  _88
REMARK   37  A    between atoms: _88  and  _89
REMARK   38  A    between atoms: _88  and  _91
REMARK   39  A    between atoms: _91  and  _92
REMARK   40  A    between atoms: _97  and  _99
REMARK   41  A    between atoms: _99  and  _100
REMARK   42  A    between atoms: _99  and  _102
REMARK   43  A    between atoms: _102  and  _103
REMARK   44  A    between atoms: _103  and  _104
REMARK   45  A    between atoms: _104  and  _105
REMARK   46  A    between atoms: _115  and  _116
REMARK   47  A    between atoms: _121  and  _123
REMARK   48  A    between atoms: _123  and  _124
REMARK   49  A    between atoms: _123  and  _126
REMARK   50  A    between atoms: _126  and  _127
REMARK   51  A    between atoms: _132  and  _133
REMARK   52  A    between atoms: _135  and  _137
REMARK   53  A    between atoms: _137  and  _138
REMARK   54  A    between atoms: _137  and  _140
REMARK   55  A    between atoms: _140  and  _141
REMARK   56  A    between atoms: _146  and  _147
REMARK   57  A    between atoms: _149  and  _151
REMARK   58  A    between atoms: _151  and  _152
REMARK   59  A    between atoms: _151  and  _154
REMARK   60  A    between atoms: _157  and  _159
REMARK   61  A    between atoms: _159  and  _160
REMARK   62  A    between atoms: _159  and  _162
REMARK   63  A    between atoms: _162  and  _163
REMARK   64  A    between atoms: _169  and  _170
REMARK   65  A    between atoms: _175  and  _177
REMARK   66  A    between atoms: _177  and  _178
REMARK   67  A    between atoms: _177  and  _180
REMARK   68  A    between atoms: _180  and  _181
REMARK   69  A    between atoms: _183  and  _185
REMARK   70  A    between atoms: _185  and  _186
REMARK   71  A    between atoms: _185  and  _188
REMARK   72  A    between atoms: _188  and  _189
REMARK   73  A    between atoms: _189  and  _190
REMARK   74  A    between atoms: _193  and  _195
REMARK   75  A    between atoms: _195  and  _196
REMARK   76  A    between atoms: _195  and  _198
REMARK   77  A    between atoms: _198  and  _199
REMARK   78  A    between atoms: _204  and  _205
REMARK   79  A    between atoms: _207  and  _209
REMARK   80  A    between atoms: _209  and  _210
REMARK   81  A    between atoms: _209  and  _212
REMARK   82  A    between atoms: _212  and  _213
REMARK   83  A    between atoms: _218  and  _220
REMARK   84  A    between atoms: _220  and  _221
REMARK   85  A    between atoms: _220  and  _223
REMARK   86  A    between atoms: _223  and  _224
REMARK   87  A    between atoms: _229  and  _231
REMARK   88  A    between atoms: _231  and  _232
REMARK   89  A    between atoms: _231  and  _234
REMARK   90  A    between atoms: _234  and  _235
REMARK   91  A    between atoms: _235  and  _236
REMARK   92  A    between atoms: _238  and  _240
REMARK   93  A    between atoms: _240  and  _241
REMARK   94  A    between atoms: _240  and  _243
REMARK   95  A    between atoms: _243  and  _244
REMARK   96  A    between atoms: _249  and  _250
REMARK   97  A    between atoms: _252  and  _254
REMARK   98  A    between atoms: _254  and  _255
REMARK   99  A    between atoms: _254  and  _257
REMARK  100  A    between atoms: _257  and  _258
REMARK  101  A    between atoms: _261  and  _263
REMARK  102  A    between atoms: _263  and  _264
REMARK  103  A    between atoms: _263  and  _266
REMARK  104  A    between atoms: _266  and  _267
REMARK  105  A    between atoms: _267  and  _484
REMARK  106  A    between atoms: _268  and  _270
REMARK  107  A    between atoms: _270  and  _271
REMARK  108  A    between atoms: _270  and  _273
REMARK  109  A    between atoms: _273  and  _274
REMARK  110  A    between atoms: _277  and  _279
REMARK  111  A    between atoms: _279  and  _280
REMARK  112  A    between atoms: _279  and  _282
REMARK  113  A    between atoms: _282  and  _283
REMARK  114  A    between atoms: _288  and  _289
REMARK  115  A    between atoms: _291  and  _293
REMARK  116  A    between atoms: _293  and  _294
REMARK  117  A    between atoms: _293  and  _296
REMARK  118  A    between atoms: _296  and  _297
REMARK  119  A    between atoms: _302  and  _303
REMARK  120  A    between atoms: _305  and  _307
REMARK  121  A    between atoms: _307  and  _308
REMARK  122  A    between atoms: _307  and  _310
REMARK  123  A    between atoms: _310  and  _311
REMARK  124  A    between atoms: _311  and  _312
REMARK  125  A    between atoms: _315  and  _317
REMARK  126  A    between atoms: _317  and  _318
REMARK  127  A    between atoms: _317  and  _320
REMARK  128  A    between atoms: _320  and  _321
REMARK  129  A    between atoms: _326  and  _327
REMARK  130  A    between atoms: _329  and  _331
REMARK  131  A    between atoms: _331  and  _332
REMARK  132  A    between atoms: _331  and  _334
REMARK  133  A    between atoms: _334  and  _335
REMARK  134  A    between atoms: _340  and  _342
REMARK  135  A    between atoms: _342  and  _343
REMARK  136  A    between atoms: _342  and  _345
REMARK  137  A    between atoms: _345  and  _346
REMARK  138  A    between atoms: _349  and  _351
REMARK  139  A    between atoms: _351  and  _352
REMARK  140  A    between atoms: _351  and  _354
REMARK  141  A    between atoms: _354  and  _355
REMARK  142  A    between atoms: _360  and  _362
REMARK  143  A    between atoms: _362  and  _363
REMARK  144  A    between atoms: _362  and  _365
REMARK  145  A    between atoms: _365  and  _366
REMARK  146  A    between atoms: _376  and  _378
REMARK  147  A    between atoms: _378  and  _379
REMARK  148  A    between atoms: _378  and  _381
REMARK  149  A    between atoms: _381  and  _382
REMARK  150  A    between atoms: _388  and  _390
REMARK  151  A    between atoms: _390  and  _391
REMARK  152  A    between atoms: _390  and  _393
REMARK  153  A    between atoms: _393  and  _394
REMARK  154  A    between atoms: _397  and  _399
REMARK  155  A    between atoms: _399  and  _400
REMARK  156  A    between atoms: _399  and  _402
REMARK  157  A    between atoms: _402  and  _403
REMARK  158  A    between atoms: _406  and  _408
REMARK  159  A    between atoms: _408  and  _409
REMARK  160  A    between atoms: _408  and  _411
REMARK  161  A    between atoms: _411  and  _412
REMARK  162  A    between atoms: _412  and  _413
REMARK  163  A    between atoms: _413  and  _414
REMARK  164  A    between atoms: _423  and  _425
REMARK  165  A    between atoms: _425  and  _426
REMARK  166  A    between atoms: _425  and  _428
REMARK  167  A    between atoms: _428  and  _429
REMARK  168  A    between atoms: _434  and  _436
REMARK  169  A    between atoms: _436  and  _437
REMARK  170  A    between atoms: _436  and  _439
REMARK  171  A    between atoms: _439  and  _440
REMARK  172  A    between atoms: _441  and  _442
REMARK  173  A    between atoms: _451  and  _453
REMARK  174  A    between atoms: _453  and  _454
REMARK  175  A    between atoms: _457  and  _459
REMARK  176  A    between atoms: _459  and  _460
REMARK  177  A    between atoms: _462  and  _464
REMARK  178  A    between atoms: _464  and  _465
REMARK  179  A    between atoms: _464  and  _467
REMARK  180  A    between atoms: _467  and  _468
REMARK  181  A    between atoms: _478  and  _480
REMARK  182  A    between atoms: _480  and  _481
REMARK  183  A    between atoms: _480  and  _483
REMARK  184  A    between atoms: _483  and  _484
REMARK  185  A    between atoms: _485  and  _487
REMARK  186  A    between atoms: _487  and  _488
REMARK  187  A    between atoms: _491  and  _493
REMARK  188  A    between atoms: _493  and  _494
REMARK  189  A    between atoms: _493  and  _496
REMARK  190  A    between atoms: _496  and  _497
REMARK  191  A    between atoms: _500  and  _502
REMARK  192  A    between atoms: _502  and  _503
REMARK  193  A    between atoms: _502  and  _505
REMARK  194  A    between atoms: _505  and  _506
REMARK  195  A    between atoms: _511  and  _512
REMARK  196  A    between atoms: _514  and  _516
REMARK  197  A    between atoms: _516  and  _517
REMARK  198  A    between atoms: _516  and  _519
REMARK  199  A    between atoms: _519  and  _520
REMARK  200  A    between atoms: _522  and  _524
REMARK  201  A    between atoms: _524  and  _525
REMARK  202  A    between atoms: _524  and  _527
REMARK  203  A    between atoms: _527  and  _528
REMARK  204  A    between atoms: _534  and  _536
REMARK  205  A    between atoms: _536  and  _537
REMARK  206  A    between atoms: _536  and  _539
REMARK  207  A    between atoms: _539  and  _540
REMARK  208  A    between atoms: _543  and  _545
REMARK  209  A    between atoms: _545  and  _546
REMARK  210  A    between atoms: _545  and  _548
REMARK  211  A    between atoms: _548  and  _549
REMARK  212  A    between atoms: _551  and  _553
REMARK  213  A    between atoms: _553  and  _554
REMARK  214  A    between atoms: _553  and  _556
REMARK  215  A    between atoms: _556  and  _557
REMARK  216  A    between atoms: _562  and  _564
REMARK  217  A    between atoms: _564  and  _565
REMARK  218  A    between atoms: _564  and  _567
REMARK  219  A    between atoms: _567  and  _568
REMARK  220  A    between atoms: _571  and  _573
REMARK  221  A    between atoms: _573  and  _574
REMARK  222  A    between atoms: _573  and  _576
REMARK  223  A    between atoms: _576  and  _577
REMARK  224  A    between atoms: _582  and  _583
REMARK  225  A    between atoms: _585  and  _587
REMARK  226  A    between atoms: _587  and  _588
REMARK  227  A    between atoms: _587  and  _590
REMARK  228  A    between atoms: _590  and  _591
REMARK  229  A    between atoms: _596  and  _597
REMARK  230  A    between atoms: _599  and  _601
REMARK  231  A    between atoms: _601  and  _602
REMARK  232  A    between atoms: _601  and  _604
REMARK  233  A    between atoms: _607  and  _609
REMARK  234  A    between atoms: _609  and  _610
REMARK  235  A    between atoms: _609  and  _612
REMARK  236  A    between atoms: _612  and  _613
REMARK  237  A    between atoms: _618  and  _620
REMARK  238  A    between atoms: _620  and  _621
REMARK  239  A    between atoms: _624  and  _626
REMARK  240  A    between atoms: _626  and  _627
REMARK  241  A    between atoms: _626  and  _629
REMARK  242  A    between atoms: _629  and  _630
REMARK  243  A    between atoms: _630  and  _631
REMARK  244  A    between atoms: _631  and  _632
REMARK  245  A    between atoms: _641  and  _643
REMARK  246  A    between atoms: _643  and  _644
REMARK  247  A    between atoms: _643  and  _646
REMARK  248  A    between atoms: _646  and  _647
REMARK  249  A    between atoms: _650  and  _652
REMARK  250  A    between atoms: _652  and  _653
REMARK  251  A    between atoms: _652  and  _655
REMARK  252  A    between atoms: _655  and  _656
REMARK  253  A    between atoms: _659  and  _661
REMARK  254  A    between atoms: _661  and  _662
REMARK  255  A    between atoms: _661  and  _664
REMARK  256  A    between atoms: _664  and  _665
REMARK                            x       y       z     vdW  Elec       q    Type
REMARK                         _______ _______ _______ _____ _____    ______ ____
ROOT
ATOM      1  O   HOH     1      -2.435  24.204  12.052  0.00  0.00    +0.000 OA
ENDROOT
TORSDOF 0
REMARK  Name = ../refined-set-2016/1b6h/1b6h_pocket.pdb
REMARK  256 active torsions:
REMARK  status: ('A' for Active; 'I' for Inactive)
REMARK    1  A    between atoms: _1  and  _3
REMARK    2  A    between atoms: _3  and  _4
REMARK    3  A    between atoms: _3  and  _6
REMARK    4  A    between atoms: _6  and  _7
REMARK    5  A    between atoms: _12  and  _14
REMARK    6  A    between atoms: _14  and  _15
REMARK    7  A    between atoms: _17  and  _19
REMARK    8  A    between atoms: _19  and  _20
REMARK    9  A    between atoms: _19  and  _22
REMARK   10  A    between atoms: _22  and  _23
REMARK   11  A    between atoms: _23  and  _24
REMARK   12  A    between atoms: _29  and  _31
REMARK   13  A    between atoms: _31  and  _32
REMARK   14  A    between atoms: _31  and  _34
REMARK   15  A    between atoms: _34  and  _35
REMARK   16  A    between atoms: _38  and  _40
REMARK   17  A    between atoms: _40  and  _41
REMARK   18  A    between atoms: _40  and  _43
REMARK   19  A    between atoms: _43  and  _44
REMARK   20  A    between atoms: _44  and  _45
REMARK   21  A    between atoms: _48  and  _50
REMARK   22  A    between atoms: _50  and  _51
REMARK   23  A    between atoms: _53  and  _55
REMARK   24  A    between atoms: _55  and  _56
REMARK   25  A    between atoms: _55  and  _58
REMARK   26  A    between atoms: _62  and  _63
REMARK   27  A    between atoms: _68  and  _70
REMARK   28  A    between atoms: _70  and  _71
REMARK   29  A    between atoms: _70  and  _73
REMARK   30  A    between atoms: _73  and  _74
REMARK   31  A    between atoms: _74  and  _75
REMARK   32  A    between atoms: _78  and  _80
REMARK   33  A    between atoms: _80  and  _81
REMARK   34  A    between atoms: _80  and  _83
REMARK   35  A    between atoms: _83  and  _84
REMARK   36  A    between atoms: _86  and  _88
REMARK   37  A    between atoms: _88  and  _89
REMARK   38  A    between atoms: _88  and  _91
REMARK   39  A    between atoms: _91  and  _92
REMARK   40  A    between atoms: _97  and  _99
REMARK   41  A    between atoms: _99  and  _100
REMARK   42  A    between atoms: _99  and  _102
REMARK   43  A    between atoms: _102  and  _103
REMARK   44  A    between atoms: _103  and  _104
REMARK   45  A    between atoms: _104  and  _105
REMARK   46  A    between atoms: _115  and  _116
REMARK   47  A    between atoms: _121  and  _123
REMARK   48  A    between atoms: _123  and  _124
REMARK   49  A    between atoms: _123  and  _126
REMARK   50  A    between atoms: _126  and  _127
REMARK   51  A    between atoms: _132  and  _133
REMARK   52  A    between atoms: _135  and  _137
REMARK   53  A    between atoms: _137  and  _138
REMARK   54  A    between atoms: _137  and  _140
REMARK   55  A    between atoms: _140  and  _141
REMARK   56  A    between atoms: _146  and  _147
REMARK   57  A    between atoms: _149  and  _151
REMARK   58  A    between atoms: _151  and  _152
REMARK   59  A    between atoms: _151  and  _154
REMARK   60  A    between atoms: _157  and  _159
REMARK   61  A    between atoms: _159  and  _160
REMARK   62  A    between atoms: _159  and  _162
REMARK   63  A    between atoms: _162  and  _163
REMARK   64  A    between atoms: _169  and  _170
REMARK   65  A    between atoms: _175  and  _177
REMARK   66  A    between atoms: _177  and  _178
REMARK   67  A    between atoms: _177  and  _180
REMARK   68  A    between atoms: _180  and  _181
REMARK   69  A    between atoms: _183  and  _185
REMARK   70  A    between atoms: _185  and  _186
REMARK   71  A    between atoms: _185  and  _188
REMARK   72  A    between atoms: _188  and  _189
REMARK   73  A    between atoms: _189  and  _190
REMARK   74  A    between atoms: _193  and  _195
REMARK   75  A    between atoms: _195  and  _196
REMARK   76  A    between atoms: _195  and  _198
REMARK   77  A    between atoms: _198  and  _199
REMARK   78  A    between atoms: _204  and  _205
REMARK   79  A    between atoms: _207  and  _209
REMARK   80  A    between atoms: _209  and  _210
REMARK   81  A    between atoms: _209  and  _212
REMARK   82  A    between atoms: _212  and  _213
REMARK   83  A    between atoms: _218  and  _220
REMARK   84  A    between atoms: _220  and  _221
REMARK   85  A    between atoms: _220  and  _223
REMARK   86  A    between atoms: _223  and  _224
REMARK   87  A    between atoms: _229  and  _231
REMARK   88  A    between atoms: _231  and  _232
REMARK   89  A    between atoms: _231  and  _234
REMARK   90  A    between atoms: _234  and  _235
REMARK   91  A    between atoms: _235  and  _236
REMARK   92  A    between atoms: _238  and  _240
REMARK   93  A    between atoms: _240  and  _241
REMARK   94  A    between atoms: _240  and  _243
REMARK   95  A    between atoms: _243  and  _244
REMARK   96  A    between atoms: _249  and  _250
REMARK   97  A    between atoms: _252  and  _254
REMARK   98  A    between atoms: _254  and  _255
REMARK   99  A    between atoms: _254  and  _257
REMARK  100  A    between atoms: _257  and  _258
REMARK  101  A    between atoms: _261  and  _263
REMARK  102  A    between atoms: _263  and  _264
REMARK  103  A    between atoms: _263  and  _266
REMARK  104  A    between atoms: _266  and  _267
REMARK  105  A    between atoms: _267  and  _484
REMARK  106  A    between atoms: _268  and  _270
REMARK  107  A    between atoms: _270  and  _271
REMARK  108  A    between atoms: _270  and  _273
REMARK  109  A    between atoms: _273  and  _274
REMARK  110  A    between atoms: _277  and  _279
REMARK  111  A    between atoms: _279  and  _280
REMARK  112  A    between atoms: _279  and  _282
REMARK  113  A    between atoms: _282  and  _283
REMARK  114  A    between atoms: _288  and  _289
REMARK  115  A    between atoms: _291  and  _293
REMARK  116  A    between atoms: _293  and  _294
REMARK  117  A    between atoms: _293  and  _296
REMARK  118  A    between atoms: _296  and  _297
REMARK  119  A    between atoms: _302  and  _303
REMARK  120  A    between atoms: _305  and  _307
REMARK  121  A    between atoms: _307  and  _308
REMARK  122  A    between atoms: _307  and  _310
REMARK  123  A    between atoms: _310  and  _311
REMARK  124  A    between atoms: _311  and  _312
REMARK  125  A    between atoms: _315  and  _317
REMARK  126  A    between atoms: _317  and  _318
REMARK  127  A    between atoms: _317  and  _320
REMARK  128  A    between atoms: _320  and  _321
REMARK  129  A    between atoms: _326  and  _327
REMARK  130  A    between atoms: _329  and  _331
REMARK  131  A    between atoms: _331  and  _332
REMARK  132  A    between atoms: _331  and  _334
REMARK  133  A    between atoms: _334  and  _335
REMARK  134  A    between atoms: _340  and  _342
REMARK  135  A    between atoms: _342  and  _343
REMARK  136  A    between atoms: _342  and  _345
REMARK  137  A    between atoms: _345  and  _346
REMARK  138  A    between atoms: _349  and  _351
REMARK  139  A    between atoms: _351  and  _352
REMARK  140  A    between atoms: _351  and  _354
REMARK  141  A    between atoms: _354  and  _355
REMARK  142  A    between atoms: _360  and  _362
REMARK  143  A    between atoms: _362  and  _363
REMARK  144  A    between atoms: _362  and  _365
REMARK  145  A    between atoms: _365  and  _366
REMARK  146  A    between atoms: _376  and  _378
REMARK  147  A    between atoms: _378  and  _379
REMARK  148  A    between atoms: _378  and  _381
REMARK  149  A    between atoms: _381  and  _382
REMARK  150  A    between atoms: _388  and  _390
REMARK  151  A    between atoms: _390  and  _391
REMARK  152  A    between atoms: _390  and  _393
REMARK  153  A    between atoms: _393  and  _394
REMARK  154  A    between atoms: _397  and  _399
REMARK  155  A    between atoms: _399  and  _400
REMARK  156  A    between atoms: _399  and  _402
REMARK  157  A    between atoms: _402  and  _403
REMARK  158  A    between atoms: _406  and  _408
REMARK  159  A    between atoms: _408  and  _409
REMARK  160  A    between atoms: _408  and  _411
REMARK  161  A    between atoms: _411  and  _412
REMARK  162  A    between atoms: _412  and  _413
REMARK  163  A    between atoms: _413  and  _414
REMARK  164  A    between atoms: _423  and  _425
REMARK  165  A    between atoms: _425  and  _426
REMARK  166  A    between atoms: _425  and  _428
REMARK  167  A    between atoms: _428  and  _429
REMARK  168  A    between atoms: _434  and  _436
REMARK  169  A    between atoms: _436  and  _437
REMARK  170  A    between atoms: _436  and  _439
REMARK  171  A    between atoms: _439  and  _440
REMARK  172  A    between atoms: _441  and  _442
REMARK  173  A    between atoms: _451  and  _453
REMARK  174  A    between atoms: _453  and  _454
REMARK  175  A    between atoms: _457  and  _459
REMARK  176  A    between atoms: _459  and  _460
REMARK  177  A    between atoms: _462  and  _464
REMARK  178  A    between atoms: _464  and  _465
REMARK  179  A    between atoms: _464  and  _467
REMARK  180  A    between atoms: _467  and  _468
REMARK  181  A    between atoms: _478  and  _480
REMARK  182  A    between atoms: _480  and  _481
REMARK  183  A    between atoms: _480  and  _483
REMARK  184  A    between atoms: _483  and  _484
REMARK  185  A    between atoms: _485  and  _487
REMARK  186  A    between atoms: _487  and  _488
REMARK  187  A    between atoms: _491  and  _493
REMARK  188  A    between atoms: _493  and  _494
REMARK  189  A    between atoms: _493  and  _496
REMARK  190  A    between atoms: _496  and  _497
REMARK  191  A    between atoms: _500  and  _502
REMARK  192  A    between atoms: _502  and  _503
REMARK  193  A    between atoms: _502  and  _505
REMARK  194  A    between atoms: _505  and  _506
REMARK  195  A    between atoms: _511  and  _512
REMARK  196  A    between atoms: _514  and  _516
REMARK  197  A    between atoms: _516  and  _517
REMARK  198  A    between atoms: _516  and  _519
REMARK  199  A    between atoms: _519  and  _520
REMARK  200  A    between atoms: _522  and  _524
REMARK  201  A    between atoms: _524  and  _525
REMARK  202  A    between atoms: _524  and  _527
REMARK  203  A    between atoms: _527  and  _528
REMARK  204  A    between atoms: _534  and  _536
REMARK  205  A    between atoms: _536  and  _537
REMARK  206  A    between atoms: _536  and  _539
REMARK  207  A    between atoms: _539  and  _540
REMARK  208  A    between atoms: _543  and  _545
REMARK  209  A    between atoms: _545  and  _546
REMARK  210  A    between atoms: _545  and  _548
REMARK  211  A    between atoms: _548  and  _549
REMARK  212  A    between atoms: _551  and  _553
REMARK  213  A    between atoms: _553  and  _554
REMARK  214  A    between atoms: _553  and  _556
REMARK  215  A    between atoms: _556  and  _557
REMARK  216  A    between atoms: _562  and  _564
REMARK  217  A    between atoms: _564  and  _565
REMARK  218  A    between atoms: _564  and  _567
REMARK  219  A    between atoms: _567  and  _568
REMARK  220  A    between atoms: _571  and  _573
REMARK  221  A    between atoms: _573  and  _574
REMARK  222  A    between atoms: _573  and  _576
REMARK  223  A    between atoms: _576  and  _577
REMARK  224  A    between atoms: _582  and  _583
REMARK  225  A    between atoms: _585  and  _587
REMARK  226  A    between atoms: _587  and  _588
REMARK  227  A    between atoms: _587  and  _590
REMARK  228  A    between atoms: _590  and  _591
REMARK  229  A    between atoms: _596  and  _597
REMARK  230  A    between atoms: _599  and  _601
REMARK  231  A    between atoms: _601  and  _602
REMARK  232  A    between atoms: _601  and  _604
REMARK  233  A    between atoms: _607  and  _609
REMARK  234  A    between atoms: _609  and  _610
REMARK  235  A    between atoms: _609  and  _612
REMARK  236  A    between atoms: _612  and  _613
REMARK  237  A    between atoms: _618  and  _620
REMARK  238  A    between atoms: _620  and  _621
REMARK  239  A    between atoms: _624  and  _626
REMARK  240  A    between atoms: _626  and  _627
REMARK  241  A    between atoms: _626  and  _629
REMARK  242  A    between atoms: _629  and  _630
REMARK  243  A    between atoms: _630  and  _631
REMARK  244  A    between atoms: _631  and  _632
REMARK  245  A    between atoms: _641  and  _643
REMARK  246  A    between atoms: _643  and  _644
REMARK  247  A    between atoms: _643  and  _646
REMARK  248  A    between atoms: _646  and  _647
REMARK  249  A    between atoms: _650  and  _652
REMARK  250  A    between atoms: _652  and  _653
REMARK  251  A    between atoms: _652  and  _655
REMARK  252  A    between atoms: _655  and  _656
REMARK  253  A    between atoms: _659  and  _661
REMARK  254  A    between atoms: _661  and  _662
REMARK  255  A    between atoms: _661  and  _664
REMARK  256  A    between atoms: _664  and  _665
REMARK                            x       y       z     vdW  Elec       q    Type
REMARK                         _______ _______ _______ _____ _____    ______ ____
ROOT
ATOM      1  O   HOH     1      -8.120  15.852  17.063  0.00  0.00    +0.000 OA
ENDROOT
TORSDOF 0
REMARK  Name = ../refined-set-2016/1b6h/1b6h_pocket.pdb
REMARK  256 active torsions:
REMARK  status: ('A' for Active; 'I' for Inactive)
REMARK    1  A    between atoms: _1  and  _3
REMARK    2  A    between atoms: _3  and  _4
REMARK    3  A    between atoms: _3  and  _6
REMARK    4  A    between atoms: _6  and  _7
REMARK    5  A    between atoms: _12  and  _14
REMARK    6  A    between atoms: _14  and  _15
REMARK    7  A    between atoms: _17  and  _19
REMARK    8  A    between atoms: _19  and  _20
REMARK    9  A    between atoms: _19  and  _22
REMARK   10  A    between atoms: _22  and  _23
REMARK   11  A    between atoms: _23  and  _24
REMARK   12  A    between atoms: _29  and  _31
REMARK   13  A    between atoms: _31  and  _32
REMARK   14  A    between atoms: _31  and  _34
REMARK   15  A    between atoms: _34  and  _35
REMARK   16  A    between atoms: _38  and  _40
REMARK   17  A    between atoms: _40  and  _41
REMARK   18  A    between atoms: _40  and  _43
REMARK   19  A    between atoms: _43  and  _44
REMARK   20  A    between atoms: _44  and  _45
REMARK   21  A    between atoms: _48  and  _50
REMARK   22  A    between atoms: _50  and  _51
REMARK   23  A    between atoms: _53  and  _55
REMARK   24  A    between atoms: _55  and  _56
REMARK   25  A    between atoms: _55  and  _58
REMARK   26  A    between atoms: _62  and  _63
REMARK   27  A    between atoms: _68  and  _70
REMARK   28  A    between atoms: _70  and  _71
REMARK   29  A    between atoms: _70  and  _73
REMARK   30  A    between atoms: _73  and  _74
REMARK   31  A    between atoms: _74  and  _75
REMARK   32  A    between atoms: _78  and  _80
REMARK   33  A    between atoms: _80  and  _81
REMARK   34  A    between atoms: _80  and  _83
REMARK   35  A    between atoms: _83  and  _84
REMARK   36  A    between atoms: _86  and  _88
REMARK   37  A    between atoms: _88  and  _89
REMARK   38  A    between atoms: _88  and  _91
REMARK   39  A    between atoms: _91  and  _92
REMARK   40  A    between atoms: _97  and  _99
REMARK   41  A    between atoms: _99  and  _100
REMARK   42  A    between atoms: _99  and  _102
REMARK   43  A    between atoms: _102  and  _103
REMARK   44  A    between atoms: _103  and  _104
REMARK   45  A    between atoms: _104  and  _105
REMARK   46  A    between atoms: _115  and  _116
REMARK   47  A    between atoms: _121  and  _123
REMARK   48  A    between atoms: _123  and  _124
REMARK   49  A    between atoms: _123  and  _126
REMARK   50  A    between atoms: _126  and  _127
REMARK   51  A    between atoms: _132  and  _133
REMARK   52  A    between atoms: _135  and  _137
REMARK   53  A    between atoms: _137  and  _138
REMARK   54  A    between atoms: _137  and  _140
REMARK   55  A    between atoms: _140  and  _141
REMARK   56  A    between atoms: _146  and  _147
REMARK   57  A    between atoms: _149  and  _151
REMARK   58  A    between atoms: _151  and  _152
REMARK   59  A    between atoms: _151  and  _154
REMARK   60  A    between atoms: _157  and  _159
REMARK   61  A    between atoms: _159  and  _160
REMARK   62  A    between atoms: _159  and  _162
REMARK   63  A    between atoms: _162  and  _163
REMARK   64  A    between atoms: _169  and  _170
REMARK   65  A    between atoms: _175  and  _177
REMARK   66  A    between atoms: _177  and  _178
REMARK   67  A    between atoms: _177  and  _180
REMARK   68  A    between atoms: _180  and  _181
REMARK   69  A    between atoms: _183  and  _185
REMARK   70  A    between atoms: _185  and  _186
REMARK   71  A    between atoms: _185  and  _188
REMARK   72  A    between atoms: _188  and  _189
REMARK   73  A    between atoms: _189  and  _190
REMARK   74  A    between atoms: _193  and  _195
REMARK   75  A    between atoms: _195  and  _196
REMARK   76  A    between atoms: _195  and  _198
REMARK   77  A    between atoms: _198  and  _199
REMARK   78  A    between atoms: _204  and  _205
REMARK   79  A    between atoms: _207  and  _209
REMARK   80  A    between atoms: _209  and  _210
REMARK   81  A    between atoms: _209  and  _212
REMARK   82  A    between atoms: _212  and  _213
REMARK   83  A    between atoms: _218  and  _220
REMARK   84  A    between atoms: _220  and  _221
REMARK   85  A    between atoms: _220  and  _223
REMARK   86  A    between atoms: _223  and  _224
REMARK   87  A    between atoms: _229  and  _231
REMARK   88  A    between atoms: _231  and  _232
REMARK   89  A    between atoms: _231  and  _234
REMARK   90  A    between atoms: _234  and  _235
REMARK   91  A    between atoms: _235  and  _236
REMARK   92  A    between atoms: _238  and  _240
REMARK   93  A    between atoms: _240  and  _241
REMARK   94  A    between atoms: _240  and  _243
REMARK   95  A    between atoms: _243  and  _244
REMARK   96  A    between atoms: _249  and  _250
REMARK   97  A    between atoms: _252  and  _254
REMARK   98  A    between atoms: _254  and  _255
REMARK   99  A    between atoms: _254  and  _257
REMARK  100  A    between atoms: _257  and  _258
REMARK  101  A    between atoms: _261  and  _263
REMARK  102  A    between atoms: _263  and  _264
REMARK  103  A    between atoms: _263  and  _266
REMARK  104  A    between atoms: _266  and  _267
REMARK  105  A    between atoms: _267  and  _484
REMARK  106  A    between atoms: _268  and  _270
REMARK  107  A    between atoms: _270  and  _271
REMARK  108  A    between atoms: _270  and  _273
REMARK  109  A    between atoms: _273  and  _274
REMARK  110  A    between atoms: _277  and  _279
REMARK  111  A    between atoms: _279  and  _280
REMARK  112  A    between atoms: _279  and  _282
REMARK  113  A    between atoms: _282  and  _283
REMARK  114  A    between atoms: _288  and  _289
REMARK  115  A    between atoms: _291  and  _293
REMARK  116  A    between atoms: _293  and  _294
REMARK  117  A    between atoms: _293  and  _296
REMARK  118  A    between atoms: _296  and  _297
REMARK  119  A    between atoms: _302  and  _303
REMARK  120  A    between atoms: _305  and  _307
REMARK  121  A    between atoms: _307  and  _308
REMARK  122  A    between atoms: _307  and  _310
REMARK  123  A    between atoms: _310  and  _311
REMARK  124  A    between atoms: _311  and  _312
REMARK  125  A    between atoms: _315  and  _317
REMARK  126  A    between atoms: _317  and  _318
REMARK  127  A    between atoms: _317  and  _320
REMARK  128  A    between atoms: _320  and  _321
REMARK  129  A    between atoms: _326  and  _327
REMARK  130  A    between atoms: _329  and  _331
REMARK  131  A    between atoms: _331  and  _332
REMARK  132  A    between atoms: _331  and  _334
REMARK  133  A    between atoms: _334  and  _335
REMARK  134  A    between atoms: _340  and  _342
REMARK  135  A    between atoms: _342  and  _343
REMARK  136  A    between atoms: _342  and  _345
REMARK  137  A    between atoms: _345  and  _346
REMARK  138  A    between atoms: _349  and  _351
REMARK  139  A    between atoms: _351  and  _352
REMARK  140  A    between atoms: _351  and  _354
REMARK  141  A    between atoms: _354  and  _355
REMARK  142  A    between atoms: _360  and  _362
REMARK  143  A    between atoms: _362  and  _363
REMARK  144  A    between atoms: _362  and  _365
REMARK  145  A    between atoms: _365  and  _366
REMARK  146  A    between atoms: _376  and  _378
REMARK  147  A    between atoms: _378  and  _379
REMARK  148  A    between atoms: _378  and  _381
REMARK  149  A    between atoms: _381  and  _382
REMARK  150  A    between atoms: _388  and  _390
REMARK  151  A    between atoms: _390  and  _391
REMARK  152  A    between atoms: _390  and  _393
REMARK  153  A    between atoms: _393  and  _394
REMARK  154  A    between atoms: _397  and  _399
REMARK  155  A    between atoms: _399  and  _400
REMARK  156  A    between atoms: _399  and  _402
REMARK  157  A    between atoms: _402  and  _403
REMARK  158  A    between atoms: _406  and  _408
REMARK  159  A    between atoms: _408  and  _409
REMARK  160  A    between atoms: _408  and  _411
REMARK  161  A    between atoms: _411  and  _412
REMARK  162  A    between atoms: _412  and  _413
REMARK  163  A    between atoms: _413  and  _414
REMARK  164  A    between atoms: _423  and  _425
REMARK  165  A    between atoms: _425  and  _426
REMARK  166  A    between atoms: _425  and  _428
REMARK  167  A    between atoms: _428  and  _429
REMARK  168  A    between atoms: _434  and  _436
REMARK  169  A    between atoms: _436  and  _437
REMARK  170  A    between atoms: _436  and  _439
REMARK  171  A    between atoms: _439  and  _440
REMARK  172  A    between atoms: _441  and  _442
REMARK  173  A    between atoms: _451  and  _453
REMARK  174  A    between atoms: _453  and  _454
REMARK  175  A    between atoms: _457  and  _459
REMARK  176  A    between atoms: _459  and  _460
REMARK  177  A    between atoms: _462  and  _464
REMARK  178  A    between atoms: _464  and  _465
REMARK  179  A    between atoms: _464  and  _467
REMARK  180  A    between atoms: _467  and  _468
REMARK  181  A    between atoms: _478  and  _480
REMARK  182  A    between atoms: _480  and  _481
REMARK  183  A    between atoms: _480  and  _483
REMARK  184  A    between atoms: _483  and  _484
REMARK  185  A    between atoms: _485  and  _487
REMARK  186  A    between atoms: _487  and  _488
REMARK  187  A    between atoms: _491  and  _493
REMARK  188  A    between atoms: _493  and  _494
REMARK  189  A    between atoms: _493  and  _496
REMARK  190  A    between atoms: _496  and  _497
REMARK  191  A    between atoms: _500  and  _502
REMARK  192  A    between atoms: _502  and  _503
REMARK  193  A    between atoms: _502  and  _505
REMARK  194  A    between atoms: _505  and  _506
REMARK  195  A    between atoms: _511  and  _512
REMARK  196  A    between atoms: _514  and  _516
REMARK  197  A    between atoms: _516  and  _517
REMARK  198  A    between atoms: _516  and  _519
REMARK  199  A    between atoms: _519  and  _520
REMARK  200  A    between atoms: _522  and  _524
REMARK  201  A    between atoms: _524  and  _525
REMARK  202  A    between atoms: _524  and  _527
REMARK  203  A    between atoms: _527  and  _528
REMARK  204  A    between atoms: _534  and  _536
REMARK  205  A    between atoms: _536  and  _537
REMARK  206  A    between atoms: _536  and  _539
REMARK  207  A    between atoms: _539  and  _540
REMARK  208  A    between atoms: _543  and  _545
REMARK  209  A    between atoms: _545  and  _546
REMARK  210  A    between atoms: _545  and  _548
REMARK  211  A    between atoms: _548  and  _549
REMARK  212  A    between atoms: _551  and  _553
REMARK  213  A    between atoms: _553  and  _554
REMARK  214  A    between atoms: _553  and  _556
REMARK  215  A    between atoms: _556  and  _557
REMARK  216  A    between atoms: _562  and  _564
REMARK  217  A    between atoms: _564  and  _565
REMARK  218  A    between atoms: _564  and  _567
REMARK  219  A    between atoms: _567  and  _568
REMARK  220  A    between atoms: _571  and  _573
REMARK  221  A    between atoms: _573  and  _574
REMARK  222  A    between atoms: _573  and  _576
REMARK  223  A    between atoms: _576  and  _577
REMARK  224  A    between atoms: _582  and  _583
REMARK  225  A    between atoms: _585  and  _587
REMARK  226  A    between atoms: _587  and  _588
REMARK  227  A    between atoms: _587  and  _590
REMARK  228  A    between atoms: _590  and  _591
REMARK  229  A    between atoms: _596  and  _597
REMARK  230  A    between atoms: _599  and  _601
REMARK  231  A    between atoms: _601  and  _602
REMARK  232  A    between atoms: _601  and  _604
REMARK  233  A    between atoms: _607  and  _609
REMARK  234  A    between atoms: _609  and  _610
REMARK  235  A    between atoms: _609  and  _612
REMARK  236  A    between atoms: _612  and  _613
REMARK  237  A    between atoms: _618  and  _620
REMARK  238  A    between atoms: _620  and  _621
REMARK  239  A    between atoms: _624  and  _626
REMARK  240  A    between atoms: _626  and  _627
REMARK  241  A    between atoms: _626  and  _629
REMARK  242  A    between atoms: _629  and  _630
REMARK  243  A    between atoms: _630  and  _631
REMARK  244  A    between atoms: _631  and  _632
REMARK  245  A    between atoms: _641  and  _643
REMARK  246  A    between atoms: _643  and  _644
REMARK  247  A    between atoms: _643  and  _646
REMARK  248  A    between atoms: _646  and  _647
REMARK  249  A    between atoms: _650  and  _652
REMARK  250  A    between atoms: _652  and  _653
REMARK  251  A    between atoms: _652  and  _655
REMARK  252  A    between atoms: _655  and  _656
REMARK  253  A    between atoms: _659  and  _661
REMARK  254  A    between atoms: _661  and  _662
REMARK  255  A    between atoms: _661  and  _664
REMARK  256  A    between atoms: _664  and  _665
REMARK                            x       y       z     vdW  Elec       q    Type
REMARK                         _______ _______ _______ _____ _____    ______ ____
ROOT
ATOM      1  O   HOH     1      -7.480  16.950  15.122  0.00  0.00    +0.000 OA
ENDROOT
TORSDOF 0
REMARK  Name = ../refined-set-2016/1b6h/1b6h_pocket.pdb
REMARK  256 active torsions:
REMARK  status: ('A' for Active; 'I' for Inactive)
REMARK    1  A    between atoms: _1  and  _3
REMARK    2  A    between atoms: _3  and  _4
REMARK    3  A    between atoms: _3  and  _6
REMARK    4  A    between atoms: _6  and  _7
REMARK    5  A    between atoms: _12  and  _14
REMARK    6  A    between atoms: _14  and  _15
REMARK    7  A    between atoms: _17  and  _19
REMARK    8  A    between atoms: _19  and  _20
REMARK    9  A    between atoms: _19  and  _22
REMARK   10  A    between atoms: _22  and  _23
REMARK   11  A    between atoms: _23  and  _24
REMARK   12  A    between atoms: _29  and  _31
REMARK   13  A    between atoms: _31  and  _32
REMARK   14  A    between atoms: _31  and  _34
REMARK   15  A    between atoms: _34  and  _35
REMARK   16  A    between atoms: _38  and  _40
REMARK   17  A    between atoms: _40  and  _41
REMARK   18  A    between atoms: _40  and  _43
REMARK   19  A    between atoms: _43  and  _44
REMARK   20  A    between atoms: _44  and  _45
REMARK   21  A    between atoms: _48  and  _50
REMARK   22  A    between atoms: _50  and  _51
REMARK   23  A    between atoms: _53  and  _55
REMARK   24  A    between atoms: _55  and  _56
REMARK   25  A    between atoms: _55  and  _58
REMARK   26  A    between atoms: _62  and  _63
REMARK   27  A    between atoms: _68  and  _70
REMARK   28  A    between atoms: _70  and  _71
REMARK   29  A    between atoms: _70  and  _73
REMARK   30  A    between atoms: _73  and  _74
REMARK   31  A    between atoms: _74  and  _75
REMARK   32  A    between atoms: _78  and  _80
REMARK   33  A    between atoms: _80  and  _81
REMARK   34  A    between atoms: _80  and  _83
REMARK   35  A    between atoms: _83  and  _84
REMARK   36  A    between atoms: _86  and  _88
REMARK   37  A    between atoms: _88  and  _89
REMARK   38  A    between atoms: _88  and  _91
REMARK   39  A    between atoms: _91  and  _92
REMARK   40  A    between atoms: _97  and  _99
REMARK   41  A    between atoms: _99  and  _100
REMARK   42  A    between atoms: _99  and  _102
REMARK   43  A    between atoms: _102  and  _103
REMARK   44  A    between atoms: _103  and  _104
REMARK   45  A    between atoms: _104  and  _105
REMARK   46  A    between atoms: _115  and  _116
REMARK   47  A    between atoms: _121  and  _123
REMARK   48  A    between atoms: _123  and  _124
REMARK   49  A    between atoms: _123  and  _126
REMARK   50  A    between atoms: _126  and  _127
REMARK   51  A    between atoms: _132  and  _133
REMARK   52  A    between atoms: _135  and  _137
REMARK   53  A    between atoms: _137  and  _138
REMARK   54  A    between atoms: _137  and  _140
REMARK   55  A    between atoms: _140  and  _141
REMARK   56  A    between atoms: _146  and  _147
REMARK   57  A    between atoms: _149  and  _151
REMARK   58  A    between atoms: _151  and  _152
REMARK   59  A    between atoms: _151  and  _154
REMARK   60  A    between atoms: _157  and  _159
REMARK   61  A    between atoms: _159  and  _160
REMARK   62  A    between atoms: _159  and  _162
REMARK   63  A    between atoms: _162  and  _163
REMARK   64  A    between atoms: _169  and  _170
REMARK   65  A    between atoms: _175  and  _177
REMARK   66  A    between atoms: _177  and  _178
REMARK   67  A    between atoms: _177  and  _180
REMARK   68  A    between atoms: _180  and  _181
REMARK   69  A    between atoms: _183  and  _185
REMARK   70  A    between atoms: _185  and  _186
REMARK   71  A    between atoms: _185  and  _188
REMARK   72  A    between atoms: _188  and  _189
REMARK   73  A    between atoms: _189  and  _190
REMARK   74  A    between atoms: _193  and  _195
REMARK   75  A    between atoms: _195  and  _196
REMARK   76  A    between atoms: _195  and  _198
REMARK   77  A    between atoms: _198  and  _199
REMARK   78  A    between atoms: _204  and  _205
REMARK   79  A    between atoms: _207  and  _209
REMARK   80  A    between atoms: _209  and  _210
REMARK   81  A    between atoms: _209  and  _212
REMARK   82  A    between atoms: _212  and  _213
REMARK   83  A    between atoms: _218  and  _220
REMARK   84  A    between atoms: _220  and  _221
REMARK   85  A    between atoms: _220  and  _223
REMARK   86  A    between atoms: _223  and  _224
REMARK   87  A    between atoms: _229  and  _231
REMARK   88  A    between atoms: _231  and  _232
REMARK   89  A    between atoms: _231  and  _234
REMARK   90  A    between atoms: _234  and  _235
REMARK   91  A    between atoms: _235  and  _236
REMARK   92  A    between atoms: _238  and  _240
REMARK   93  A    between atoms: _240  and  _241
REMARK   94  A    between atoms: _240  and  _243
REMARK   95  A    between atoms: _243  and  _244
REMARK   96  A    between atoms: _249  and  _250
REMARK   97  A    between atoms: _252  and  _254
REMARK   98  A    between atoms: _254  and  _255
REMARK   99  A    between atoms: _254  and  _257
REMARK  100  A    between atoms: _257  and  _258
REMARK  101  A    between atoms: _261  and  _263
REMARK  102  A    between atoms: _263  and  _264
REMARK  103  A    between atoms: _263  and  _266
REMARK  104  A    between atoms: _266  and  _267
REMARK  105  A    between atoms: _267  and  _484
REMARK  106  A    between atoms: _268  and  _270
REMARK  107  A    between atoms: _270  and  _271
REMARK  108  A    between atoms: _270  and  _273
REMARK  109  A    between atoms: _273  and  _274
REMARK  110  A    between atoms: _277  and  _279
REMARK  111  A    between atoms: _279  and  _280
REMARK  112  A    between atoms: _279  and  _282
REMARK  113  A    between atoms: _282  and  _283
REMARK  114  A    between atoms: _288  and  _289
REMARK  115  A    between atoms: _291  and  _293
REMARK  116  A    between atoms: _293  and  _294
REMARK  117  A    between atoms: _293  and  _296
REMARK  118  A    between atoms: _296  and  _297
REMARK  119  A    between atoms: _302  and  _303
REMARK  120  A    between atoms: _305  and  _307
REMARK  121  A    between atoms: _307  and  _308
REMARK  122  A    between atoms: _307  and  _310
REMARK  123  A    between atoms: _310  and  _311
REMARK  124  A    between atoms: _311  and  _312
REMARK  125  A    between atoms: _315  and  _317
REMARK  126  A    between atoms: _317  and  _318
REMARK  127  A    between atoms: _317  and  _320
REMARK  128  A    between atoms: _320  and  _321
REMARK  129  A    between atoms: _326  and  _327
REMARK  130  A    between atoms: _329  and  _331
REMARK  131  A    between atoms: _331  and  _332
REMARK  132  A    between atoms: _331  and  _334
REMARK  133  A    between atoms: _334  and  _335
REMARK  134  A    between atoms: _340  and  _342
REMARK  135  A    between atoms: _342  and  _343
REMARK  136  A    between atoms: _342  and  _345
REMARK  137  A    between atoms: _345  and  _346
REMARK  138  A    between atoms: _349  and  _351
REMARK  139  A    between atoms: _351  and  _352
REMARK  140  A    between atoms: _351  and  _354
REMARK  141  A    between atoms: _354  and  _355
REMARK  142  A    between atoms: _360  and  _362
REMARK  143  A    between atoms: _362  and  _363
REMARK  144  A    between atoms: _362  and  _365
REMARK  145  A    between atoms: _365  and  _366
REMARK  146  A    between atoms: _376  and  _378
REMARK  147  A    between atoms: _378  and  _379
REMARK  148  A    between atoms: _378  and  _381
REMARK  149  A    between atoms: _381  and  _382
REMARK  150  A    between atoms: _388  and  _390
REMARK  151  A    between atoms: _390  and  _391
REMARK  152  A    between atoms: _390  and  _393
REMARK  153  A    between atoms: _393  and  _394
REMARK  154  A    between atoms: _397  and  _399
REMARK  155  A    between atoms: _399  and  _400
REMARK  156  A    between atoms: _399  and  _402
REMARK  157  A    between atoms: _402  and  _403
REMARK  158  A    between atoms: _406  and  _408
REMARK  159  A    between atoms: _408  and  _409
REMARK  160  A    between atoms: _408  and  _411
REMARK  161  A    between atoms: _411  and  _412
REMARK  162  A    between atoms: _412  and  _413
REMARK  163  A    between atoms: _413  and  _414
REMARK  164  A    between atoms: _423  and  _425
REMARK  165  A    between atoms: _425  and  _426
REMARK  166  A    between atoms: _425  and  _428
REMARK  167  A    between atoms: _428  and  _429
REMARK  168  A    between atoms: _434  and  _436
REMARK  169  A    between atoms: _436  and  _437
REMARK  170  A    between atoms: _436  and  _439
REMARK  171  A    between atoms: _439  and  _440
REMARK  172  A    between atoms: _441  and  _442
REMARK  173  A    between atoms: _451  and  _453
REMARK  174  A    between atoms: _453  and  _454
REMARK  175  A    between atoms: _457  and  _459
REMARK  176  A    between atoms: _459  and  _460
REMARK  177  A    between atoms: _462  and  _464
REMARK  178  A    between atoms: _464  and  _465
REMARK  179  A    between atoms: _464  and  _467
REMARK  180  A    between atoms: _467  and  _468
REMARK  181  A    between atoms: _478  and  _480
REMARK  182  A    between atoms: _480  and  _481
REMARK  183  A    between atoms: _480  and  _483
REMARK  184  A    between atoms: _483  and  _484
REMARK  185  A    between atoms: _485  and  _487
REMARK  186  A    between atoms: _487  and  _488
REMARK  187  A    between atoms: _491  and  _493
REMARK  188  A    between atoms: _493  and  _494
REMARK  189  A    between atoms: _493  and  _496
REMARK  190  A    between atoms: _496  and  _497
REMARK  191  A    between atoms: _500  and  _502
REMARK  192  A    between atoms: _502  and  _503
REMARK  193  A    between atoms: _502  and  _505
REMARK  194  A    between atoms: _505  and  _506
REMARK  195  A    between atoms: _511  and  _512
REMARK  196  A    between atoms: _514  and  _516
REMARK  197  A    between atoms: _516  and  _517
REMARK  198  A    between atoms: _516  and  _519
REMARK  199  A    between atoms: _519  and  _520
REMARK  200  A    between atoms: _522  and  _524
REMARK  201  A    between atoms: _524  and  _525
REMARK  202  A    between atoms: _524  and  _527
REMARK  203  A    between atoms: _527  and  _528
REMARK  204  A    between atoms: _534  and  _536
REMARK  205  A    between atoms: _536  and  _537
REMARK  206  A    between atoms: _536  and  _539
REMARK  207  A    between atoms: _539  and  _540
REMARK  208  A    between atoms: _543  and  _545
REMARK  209  A    between atoms: _545  and  _546
REMARK  210  A    between atoms: _545  and  _548
REMARK  211  A    between atoms: _548  and  _549
REMARK  212  A    between atoms: _551  and  _553
REMARK  213  A    between atoms: _553  and  _554
REMARK  214  A    between atoms: _553  and  _556
REMARK  215  A    between atoms: _556  and  _557
REMARK  216  A    between atoms: _562  and  _564
REMARK  217  A    between atoms: _564  and  _565
REMARK  218  A    between atoms: _564  and  _567
REMARK  219  A    between atoms: _567  and  _568
REMARK  220  A    between atoms: _571  and  _573
REMARK  221  A    between atoms: _573  and  _574
REMARK  222  A    between atoms: _573  and  _576
REMARK  223  A    between atoms: _576  and  _577
REMARK  224  A    between atoms: _582  and  _583
REMARK  225  A    between atoms: _585  and  _587
REMARK  226  A    between atoms: _587  and  _588
REMARK  227  A    between atoms: _587  and  _590
REMARK  228  A    between atoms: _590  and  _591
REMARK  229  A    between atoms: _596  and  _597
REMARK  230  A    between atoms: _599  and  _601
REMARK  231  A    between atoms: _601  and  _602
REMARK  232  A    between atoms: _601  and  _604
REMARK  233  A    between atoms: _607  and  _609
REMARK  234  A    between atoms: _609  and  _610
REMARK  235  A    between atoms: _609  and  _612
REMARK  236  A    between atoms: _612  and  _613
REMARK  237  A    between atoms: _618  and  _620
REMARK  238  A    between atoms: _620  and  _621
REMARK  239  A    between atoms: _624  and  _626
REMARK  240  A    between atoms: _626  and  _627
REMARK  241  A    between atoms: _626  and  _629
REMARK  242  A    between atoms: _629  and  _630
REMARK  243  A    between atoms: _630  and  _631
REMARK  244  A    between atoms: _631  and  _632
REMARK  245  A    between atoms: _641  and  _643
REMARK  246  A    between atoms: _643  and  _644
REMARK  247  A    between atoms: _643  and  _646
REMARK  248  A    between atoms: _646  and  _647
REMARK  249  A    between atoms: _650  and  _652
REMARK  250  A    between atoms: _652  and  _653
REMARK  251  A    between atoms: _652  and  _655
REMARK  252  A    between atoms: _655  and  _656
REMARK  253  A    between atoms: _659  and  _661
REMARK  254  A    between atoms: _661  and  _662
REMARK  255  A    between atoms: _661  and  _664
REMARK  256  A    between atoms: _664  and  _665
REMARK                            x       y       z     vdW  Elec       q    Type
REMARK                         _______ _______ _______ _____ _____    ______ ____
ROOT
ATOM      1  O   HOH     1      -3.225  17.492   5.428  0.00  0.00    +0.000 OA
ENDROOT
TORSDOF 0
REMARK  Name = ../refined-set-2016/1b6h/1b6h_pocket.pdb
REMARK  256 active torsions:
REMARK  status: ('A' for Active; 'I' for Inactive)
REMARK    1  A    between atoms: _1  and  _3
REMARK    2  A    between atoms: _3  and  _4
REMARK    3  A    between atoms: _3  and  _6
REMARK    4  A    between atoms: _6  and  _7
REMARK    5  A    between atoms: _12  and  _14
REMARK    6  A    between atoms: _14  and  _15
REMARK    7  A    between atoms: _17  and  _19
REMARK    8  A    between atoms: _19  and  _20
REMARK    9  A    between atoms: _19  and  _22
REMARK   10  A    between atoms: _22  and  _23
REMARK   11  A    between atoms: _23  and  _24
REMARK   12  A    between atoms: _29  and  _31
REMARK   13  A    between atoms: _31  and  _32
REMARK   14  A    between atoms: _31  and  _34
REMARK   15  A    between atoms: _34  and  _35
REMARK   16  A    between atoms: _38  and  _40
REMARK   17  A    between atoms: _40  and  _41
REMARK   18  A    between atoms: _40  and  _43
REMARK   19  A    between atoms: _43  and  _44
REMARK   20  A    between atoms: _44  and  _45
REMARK   21  A    between atoms: _48  and  _50
REMARK   22  A    between atoms: _50  and  _51
REMARK   23  A    between atoms: _53  and  _55
REMARK   24  A    between atoms: _55  and  _56
REMARK   25  A    between atoms: _55  and  _58
REMARK   26  A    between atoms: _62  and  _63
REMARK   27  A    between atoms: _68  and  _70
REMARK   28  A    between atoms: _70  and  _71
REMARK   29  A    between atoms: _70  and  _73
REMARK   30  A    between atoms: _73  and  _74
REMARK   31  A    between atoms: _74  and  _75
REMARK   32  A    between atoms: _78  and  _80
REMARK   33  A    between atoms: _80  and  _81
REMARK   34  A    between atoms: _80  and  _83
REMARK   35  A    between atoms: _83  and  _84
REMARK   36  A    between atoms: _86  and  _88
REMARK   37  A    between atoms: _88  and  _89
REMARK   38  A    between atoms: _88  and  _91
REMARK   39  A    between atoms: _91  and  _92
REMARK   40  A    between atoms: _97  and  _99
REMARK   41  A    between atoms: _99  and  _100
REMARK   42  A    between atoms: _99  and  _102
REMARK   43  A    between atoms: _102  and  _103
REMARK   44  A    between atoms: _103  and  _104
REMARK   45  A    between atoms: _104  and  _105
REMARK   46  A    between atoms: _115  and  _116
REMARK   47  A    between atoms: _121  and  _123
REMARK   48  A    between atoms: _123  and  _124
REMARK   49  A    between atoms: _123  and  _126
REMARK   50  A    between atoms: _126  and  _127
REMARK   51  A    between atoms: _132  and  _133
REMARK   52  A    between atoms: _135  and  _137
REMARK   53  A    between atoms: _137  and  _138
REMARK   54  A    between atoms: _137  and  _140
REMARK   55  A    between atoms: _140  and  _141
REMARK   56  A    between atoms: _146  and  _147
REMARK   57  A    between atoms: _149  and  _151
REMARK   58  A    between atoms: _151  and  _152
REMARK   59  A    between atoms: _151  and  _154
REMARK   60  A    between atoms: _157  and  _159
REMARK   61  A    between atoms: _159  and  _160
REMARK   62  A    between atoms: _159  and  _162
REMARK   63  A    between atoms: _162  and  _163
REMARK   64  A    between atoms: _169  and  _170
REMARK   65  A    between atoms: _175  and  _177
REMARK   66  A    between atoms: _177  and  _178
REMARK   67  A    between atoms: _177  and  _180
REMARK   68  A    between atoms: _180  and  _181
REMARK   69  A    between atoms: _183  and  _185
REMARK   70  A    between atoms: _185  and  _186
REMARK   71  A    between atoms: _185  and  _188
REMARK   72  A    between atoms: _188  and  _189
REMARK   73  A    between atoms: _189  and  _190
REMARK   74  A    between atoms: _193  and  _195
REMARK   75  A    between atoms: _195  and  _196
REMARK   76  A    between atoms: _195  and  _198
REMARK   77  A    between atoms: _198  and  _199
REMARK   78  A    between atoms: _204  and  _205
REMARK   79  A    between atoms: _207  and  _209
REMARK   80  A    between atoms: _209  and  _210
REMARK   81  A    between atoms: _209  and  _212
REMARK   82  A    between atoms: _212  and  _213
REMARK   83  A    between atoms: _218  and  _220
REMARK   84  A    between atoms: _220  and  _221
REMARK   85  A    between atoms: _220  and  _223
REMARK   86  A    between atoms: _223  and  _224
REMARK   87  A    between atoms: _229  and  _231
REMARK   88  A    between atoms: _231  and  _232
REMARK   89  A    between atoms: _231  and  _234
REMARK   90  A    between atoms: _234  and  _235
REMARK   91  A    between atoms: _235  and  _236
REMARK   92  A    between atoms: _238  and  _240
REMARK   93  A    between atoms: _240  and  _241
REMARK   94  A    between atoms: _240  and  _243
REMARK   95  A    between atoms: _243  and  _244
REMARK   96  A    between atoms: _249  and  _250
REMARK   97  A    between atoms: _252  and  _254
REMARK   98  A    between atoms: _254  and  _255
REMARK   99  A    between atoms: _254  and  _257
REMARK  100  A    between atoms: _257  and  _258
REMARK  101  A    between atoms: _261  and  _263
REMARK  102  A    between atoms: _263  and  _264
REMARK  103  A    between atoms: _263  and  _266
REMARK  104  A    between atoms: _266  and  _267
REMARK  105  A    between atoms: _267  and  _484
REMARK  106  A    between atoms: _268  and  _270
REMARK  107  A    between atoms: _270  and  _271
REMARK  108  A    between atoms: _270  and  _273
REMARK  109  A    between atoms: _273  and  _274
REMARK  110  A    between atoms: _277  and  _279
REMARK  111  A    between atoms: _279  and  _280
REMARK  112  A    between atoms: _279  and  _282
REMARK  113  A    between atoms: _282  and  _283
REMARK  114  A    between atoms: _288  and  _289
REMARK  115  A    between atoms: _291  and  _293
REMARK  116  A    between atoms: _293  and  _294
REMARK  117  A    between atoms: _293  and  _296
REMARK  118  A    between atoms: _296  and  _297
REMARK  119  A    between atoms: _302  and  _303
REMARK  120  A    between atoms: _305  and  _307
REMARK  121  A    between atoms: _307  and  _308
REMARK  122  A    between atoms: _307  and  _310
REMARK  123  A    between atoms: _310  and  _311
REMARK  124  A    between atoms: _311  and  _312
REMARK  125  A    between atoms: _315  and  _317
REMARK  126  A    between atoms: _317  and  _318
REMARK  127  A    between atoms: _317  and  _320
REMARK  128  A    between atoms: _320  and  _321
REMARK  129  A    between atoms: _326  and  _327
REMARK  130  A    between atoms: _329  and  _331
REMARK  131  A    between atoms: _331  and  _332
REMARK  132  A    between atoms: _331  and  _334
REMARK  133  A    between atoms: _334  and  _335
REMARK  134  A    between atoms: _340  and  _342
REMARK  135  A    between atoms: _342  and  _343
REMARK  136  A    between atoms: _342  and  _345
REMARK  137  A    between atoms: _345  and  _346
REMARK  138  A    between atoms: _349  and  _351
REMARK  139  A    between atoms: _351  and  _352
REMARK  140  A    between atoms: _351  and  _354
REMARK  141  A    between atoms: _354  and  _355
REMARK  142  A    between atoms: _360  and  _362
REMARK  143  A    between atoms: _362  and  _363
REMARK  144  A    between atoms: _362  and  _365
REMARK  145  A    between atoms: _365  and  _366
REMARK  146  A    between atoms: _376  and  _378
REMARK  147  A    between atoms: _378  and  _379
REMARK  148  A    between atoms: _378  and  _381
REMARK  149  A    between atoms: _381  and  _382
REMARK  150  A    between atoms: _388  and  _390
REMARK  151  A    between atoms: _390  and  _391
REMARK  152  A    between atoms: _390  and  _393
REMARK  153  A    between atoms: _393  and  _394
REMARK  154  A    between atoms: _397  and  _399
REMARK  155  A    between atoms: _399  and  _400
REMARK  156  A    between atoms: _399  and  _402
REMARK  157  A    between atoms: _402  and  _403
REMARK  158  A    between atoms: _406  and  _408
REMARK  159  A    between atoms: _408  and  _409
REMARK  160  A    between atoms: _408  and  _411
REMARK  161  A    between atoms: _411  and  _412
REMARK  162  A    between atoms: _412  and  _413
REMARK  163  A    between atoms: _413  and  _414
REMARK  164  A    between atoms: _423  and  _425
REMARK  165  A    between atoms: _425  and  _426
REMARK  166  A    between atoms: _425  and  _428
REMARK  167  A    between atoms: _428  and  _429
REMARK  168  A    between atoms: _434  and  _436
REMARK  169  A    between atoms: _436  and  _437
REMARK  170  A    between atoms: _436  and  _439
REMARK  171  A    between atoms: _439  and  _440
REMARK  172  A    between atoms: _441  and  _442
REMARK  173  A    between atoms: _451  and  _453
REMARK  174  A    between atoms: _453  and  _454
REMARK  175  A    between atoms: _457  and  _459
REMARK  176  A    between atoms: _459  and  _460
REMARK  177  A    between atoms: _462  and  _464
REMARK  178  A    between atoms: _464  and  _465
REMARK  179  A    between atoms: _464  and  _467
REMARK  180  A    between atoms: _467  and  _468
REMARK  181  A    between atoms: _478  and  _480
REMARK  182  A    between atoms: _480  and  _481
REMARK  183  A    between atoms: _480  and  _483
REMARK  184  A    between atoms: _483  and  _484
REMARK  185  A    between atoms: _485  and  _487
REMARK  186  A    between atoms: _487  and  _488
REMARK  187  A    between atoms: _491  and  _493
REMARK  188  A    between atoms: _493  and  _494
REMARK  189  A    between atoms: _493  and  _496
REMARK  190  A    between atoms: _496  and  _497
REMARK  191  A    between atoms: _500  and  _502
REMARK  192  A    between atoms: _502  and  _503
REMARK  193  A    between atoms: _502  and  _505
REMARK  194  A    between atoms: _505  and  _506
REMARK  195  A    between atoms: _511  and  _512
REMARK  196  A    between atoms: _514  and  _516
REMARK  197  A    between atoms: _516  and  _517
REMARK  198  A    between atoms: _516  and  _519
REMARK  199  A    between atoms: _519  and  _520
REMARK  200  A    between atoms: _522  and  _524
REMARK  201  A    between atoms: _524  and  _525
REMARK  202  A    between atoms: _524  and  _527
REMARK  203  A    between atoms: _527  and  _528
REMARK  204  A    between atoms: _534  and  _536
REMARK  205  A    between atoms: _536  and  _537
REMARK  206  A    between atoms: _536  and  _539
REMARK  207  A    between atoms: _539  and  _540
REMARK  208  A    between atoms: _543  and  _545
REMARK  209  A    between atoms: _545  and  _546
REMARK  210  A    between atoms: _545  and  _548
REMARK  211  A    between atoms: _548  and  _549
REMARK  212  A    between atoms: _551  and  _553
REMARK  213  A    between atoms: _553  and  _554
REMARK  214  A    between atoms: _553  and  _556
REMARK  215  A    between atoms: _556  and  _557
REMARK  216  A    between atoms: _562  and  _564
REMARK  217  A    between atoms: _564  and  _565
REMARK  218  A    between atoms: _564  and  _567
REMARK  219  A    between atoms: _567  and  _568
REMARK  220  A    between atoms: _571  and  _573
REMARK  221  A    between atoms: _573  and  _574
REMARK  222  A    between atoms: _573  and  _576
REMARK  223  A    between atoms: _576  and  _577
REMARK  224  A    between atoms: _582  and  _583
REMARK  225  A    between atoms: _585  and  _587
REMARK  226  A    between atoms: _587  and  _588
REMARK  227  A    between atoms: _587  and  _590
REMARK  228  A    between atoms: _590  and  _591
REMARK  229  A    between atoms: _596  and  _597
REMARK  230  A    between atoms: _599  and  _601
REMARK  231  A    between atoms: _601  and  _602
REMARK  232  A    between atoms: _601  and  _604
REMARK  233  A    between atoms: _607  and  _609
REMARK  234  A    between atoms: _609  and  _610
REMARK  235  A    between atoms: _609  and  _612
REMARK  236  A    between atoms: _612  and  _613
REMARK  237  A    between atoms: _618  and  _620
REMARK  238  A    between atoms: _620  and  _621
REMARK  239  A    between atoms: _624  and  _626
REMARK  240  A    between atoms: _626  and  _627
REMARK  241  A    between atoms: _626  and  _629
REMARK  242  A    between atoms: _629  and  _630
REMARK  243  A    between atoms: _630  and  _631
REMARK  244  A    between atoms: _631  and  _632
REMARK  245  A    between atoms: _641  and  _643
REMARK  246  A    between atoms: _643  and  _644
REMARK  247  A    between atoms: _643  and  _646
REMARK  248  A    between atoms: _646  and  _647
REMARK  249  A    between atoms: _650  and  _652
REMARK  250  A    between atoms: _652  and  _653
REMARK  251  A    between atoms: _652  and  _655
REMARK  252  A    between atoms: _655  and  _656
REMARK  253  A    between atoms: _659  and  _661
REMARK  254  A    between atoms: _661  and  _662
REMARK  255  A    between atoms: _661  and  _664
REMARK  256  A    between atoms: _664  and  _665
REMARK                            x       y       z     vdW  Elec       q    Type
REMARK                         _______ _______ _______ _____ _____    ______ ____
ROOT
ATOM      1  O   HOH     1       7.622  21.790  20.901  0.00  0.00    +0.000 OA
ENDROOT
TORSDOF 0
REMARK  Name = ../refined-set-2016/1b6h/1b6h_pocket.pdb
REMARK  256 active torsions:
REMARK  status: ('A' for Active; 'I' for Inactive)
REMARK    1  A    between atoms: _1  and  _3
REMARK    2  A    between atoms: _3  and  _4
REMARK    3  A    between atoms: _3  and  _6
REMARK    4  A    between atoms: _6  and  _7
REMARK    5  A    between atoms: _12  and  _14
REMARK    6  A    between atoms: _14  and  _15
REMARK    7  A    between atoms: _17  and  _19
REMARK    8  A    between atoms: _19  and  _20
REMARK    9  A    between atoms: _19  and  _22
REMARK   10  A    between atoms: _22  and  _23
REMARK   11  A    between atoms: _23  and  _24
REMARK   12  A    between atoms: _29  and  _31
REMARK   13  A    between atoms: _31  and  _32
REMARK   14  A    between atoms: _31  and  _34
REMARK   15  A    between atoms: _34  and  _35
REMARK   16  A    between atoms: _38  and  _40
REMARK   17  A    between atoms: _40  and  _41
REMARK   18  A    between atoms: _40  and  _43
REMARK   19  A    between atoms: _43  and  _44
REMARK   20  A    between atoms: _44  and  _45
REMARK   21  A    between atoms: _48  and  _50
REMARK   22  A    between atoms: _50  and  _51
REMARK   23  A    between atoms: _53  and  _55
REMARK   24  A    between atoms: _55  and  _56
REMARK   25  A    between atoms: _55  and  _58
REMARK   26  A    between atoms: _62  and  _63
REMARK   27  A    between atoms: _68  and  _70
REMARK   28  A    between atoms: _70  and  _71
REMARK   29  A    between atoms: _70  and  _73
REMARK   30  A    between atoms: _73  and  _74
REMARK   31  A    between atoms: _74  and  _75
REMARK   32  A    between atoms: _78  and  _80
REMARK   33  A    between atoms: _80  and  _81
REMARK   34  A    between atoms: _80  and  _83
REMARK   35  A    between atoms: _83  and  _84
REMARK   36  A    between atoms: _86  and  _88
REMARK   37  A    between atoms: _88  and  _89
REMARK   38  A    between atoms: _88  and  _91
REMARK   39  A    between atoms: _91  and  _92
REMARK   40  A    between atoms: _97  and  _99
REMARK   41  A    between atoms: _99  and  _100
REMARK   42  A    between atoms: _99  and  _102
REMARK   43  A    between atoms: _102  and  _103
REMARK   44  A    between atoms: _103  and  _104
REMARK   45  A    between atoms: _104  and  _105
REMARK   46  A    between atoms: _115  and  _116
REMARK   47  A    between atoms: _121  and  _123
REMARK   48  A    between atoms: _123  and  _124
REMARK   49  A    between atoms: _123  and  _126
REMARK   50  A    between atoms: _126  and  _127
REMARK   51  A    between atoms: _132  and  _133
REMARK   52  A    between atoms: _135  and  _137
REMARK   53  A    between atoms: _137  and  _138
REMARK   54  A    between atoms: _137  and  _140
REMARK   55  A    between atoms: _140  and  _141
REMARK   56  A    between atoms: _146  and  _147
REMARK   57  A    between atoms: _149  and  _151
REMARK   58  A    between atoms: _151  and  _152
REMARK   59  A    between atoms: _151  and  _154
REMARK   60  A    between atoms: _157  and  _159
REMARK   61  A    between atoms: _159  and  _160
REMARK   62  A    between atoms: _159  and  _162
REMARK   63  A    between atoms: _162  and  _163
REMARK   64  A    between atoms: _169  and  _170
REMARK   65  A    between atoms: _175  and  _177
REMARK   66  A    between atoms: _177  and  _178
REMARK   67  A    between atoms: _177  and  _180
REMARK   68  A    between atoms: _180  and  _181
REMARK   69  A    between atoms: _183  and  _185
REMARK   70  A    between atoms: _185  and  _186
REMARK   71  A    between atoms: _185  and  _188
REMARK   72  A    between atoms: _188  and  _189
REMARK   73  A    between atoms: _189  and  _190
REMARK   74  A    between atoms: _193  and  _195
REMARK   75  A    between atoms: _195  and  _196
REMARK   76  A    between atoms: _195  and  _198
REMARK   77  A    between atoms: _198  and  _199
REMARK   78  A    between atoms: _204  and  _205
REMARK   79  A    between atoms: _207  and  _209
REMARK   80  A    between atoms: _209  and  _210
REMARK   81  A    between atoms: _209  and  _212
REMARK   82  A    between atoms: _212  and  _213
REMARK   83  A    between atoms: _218  and  _220
REMARK   84  A    between atoms: _220  and  _221
REMARK   85  A    between atoms: _220  and  _223
REMARK   86  A    between atoms: _223  and  _224
REMARK   87  A    between atoms: _229  and  _231
REMARK   88  A    between atoms: _231  and  _232
REMARK   89  A    between atoms: _231  and  _234
REMARK   90  A    between atoms: _234  and  _235
REMARK   91  A    between atoms: _235  and  _236
REMARK   92  A    between atoms: _238  and  _240
REMARK   93  A    between atoms: _240  and  _241
REMARK   94  A    between atoms: _240  and  _243
REMARK   95  A    between atoms: _243  and  _244
REMARK   96  A    between atoms: _249  and  _250
REMARK   97  A    between atoms: _252  and  _254
REMARK   98  A    between atoms: _254  and  _255
REMARK   99  A    between atoms: _254  and  _257
REMARK  100  A    between atoms: _257  and  _258
REMARK  101  A    between atoms: _261  and  _263
REMARK  102  A    between atoms: _263  and  _264
REMARK  103  A    between atoms: _263  and  _266
REMARK  104  A    between atoms: _266  and  _267
REMARK  105  A    between atoms: _267  and  _484
REMARK  106  A    between atoms: _268  and  _270
REMARK  107  A    between atoms: _270  and  _271
REMARK  108  A    between atoms: _270  and  _273
REMARK  109  A    between atoms: _273  and  _274
REMARK  110  A    between atoms: _277  and  _279
REMARK  111  A    between atoms: _279  and  _280
REMARK  112  A    between atoms: _279  and  _282
REMARK  113  A    between atoms: _282  and  _283
REMARK  114  A    between atoms: _288  and  _289
REMARK  115  A    between atoms: _291  and  _293
REMARK  116  A    between atoms: _293  and  _294
REMARK  117  A    between atoms: _293  and  _296
REMARK  118  A    between atoms: _296  and  _297
REMARK  119  A    between atoms: _302  and  _303
REMARK  120  A    between atoms: _305  and  _307
REMARK  121  A    between atoms: _307  and  _308
REMARK  122  A    between atoms: _307  and  _310
REMARK  123  A    between atoms: _310  and  _311
REMARK  124  A    between atoms: _311  and  _312
REMARK  125  A    between atoms: _315  and  _317
REMARK  126  A    between atoms: _317  and  _318
REMARK  127  A    between atoms: _317  and  _320
REMARK  128  A    between atoms: _320  and  _321
REMARK  129  A    between atoms: _326  and  _327
REMARK  130  A    between atoms: _329  and  _331
REMARK  131  A    between atoms: _331  and  _332
REMARK  132  A    between atoms: _331  and  _334
REMARK  133  A    between atoms: _334  and  _335
REMARK  134  A    between atoms: _340  and  _342
REMARK  135  A    between atoms: _342  and  _343
REMARK  136  A    between atoms: _342  and  _345
REMARK  137  A    between atoms: _345  and  _346
REMARK  138  A    between atoms: _349  and  _351
REMARK  139  A    between atoms: _351  and  _352
REMARK  140  A    between atoms: _351  and  _354
REMARK  141  A    between atoms: _354  and  _355
REMARK  142  A    between atoms: _360  and  _362
REMARK  143  A    between atoms: _362  and  _363
REMARK  144  A    between atoms: _362  and  _365
REMARK  145  A    between atoms: _365  and  _366
REMARK  146  A    between atoms: _376  and  _378
REMARK  147  A    between atoms: _378  and  _379
REMARK  148  A    between atoms: _378  and  _381
REMARK  149  A    between atoms: _381  and  _382
REMARK  150  A    between atoms: _388  and  _390
REMARK  151  A    between atoms: _390  and  _391
REMARK  152  A    between atoms: _390  and  _393
REMARK  153  A    between atoms: _393  and  _394
REMARK  154  A    between atoms: _397  and  _399
REMARK  155  A    between atoms: _399  and  _400
REMARK  156  A    between atoms: _399  and  _402
REMARK  157  A    between atoms: _402  and  _403
REMARK  158  A    between atoms: _406  and  _408
REMARK  159  A    between atoms: _408  and  _409
REMARK  160  A    between atoms: _408  and  _411
REMARK  161  A    between atoms: _411  and  _412
REMARK  162  A    between atoms: _412  and  _413
REMARK  163  A    between atoms: _413  and  _414
REMARK  164  A    between atoms: _423  and  _425
REMARK  165  A    between atoms: _425  and  _426
REMARK  166  A    between atoms: _425  and  _428
REMARK  167  A    between atoms: _428  and  _429
REMARK  168  A    between atoms: _434  and  _436
REMARK  169  A    between atoms: _436  and  _437
REMARK  170  A    between atoms: _436  and  _439
REMARK  171  A    between atoms: _439  and  _440
REMARK  172  A    between atoms: _441  and  _442
REMARK  173  A    between atoms: _451  and  _453
REMARK  174  A    between atoms: _453  and  _454
REMARK  175  A    between atoms: _457  and  _459
REMARK  176  A    between atoms: _459  and  _460
REMARK  177  A    between atoms: _462  and  _464
REMARK  178  A    between atoms: _464  and  _465
REMARK  179  A    between atoms: _464  and  _467
REMARK  180  A    between atoms: _467  and  _468
REMARK  181  A    between atoms: _478  and  _480
REMARK  182  A    between atoms: _480  and  _481
REMARK  183  A    between atoms: _480  and  _483
REMARK  184  A    between atoms: _483  and  _484
REMARK  185  A    between atoms: _485  and  _487
REMARK  186  A    between atoms: _487  and  _488
REMARK  187  A    between atoms: _491  and  _493
REMARK  188  A    between atoms: _493  and  _494
REMARK  189  A    between atoms: _493  and  _496
REMARK  190  A    between atoms: _496  and  _497
REMARK  191  A    between atoms: _500  and  _502
REMARK  192  A    between atoms: _502  and  _503
REMARK  193  A    between atoms: _502  and  _505
REMARK  194  A    between atoms: _505  and  _506
REMARK  195  A    between atoms: _511  and  _512
REMARK  196  A    between atoms: _514  and  _516
REMARK  197  A    between atoms: _516  and  _517
REMARK  198  A    between atoms: _516  and  _519
REMARK  199  A    between atoms: _519  and  _520
REMARK  200  A    between atoms: _522  and  _524
REMARK  201  A    between atoms: _524  and  _525
REMARK  202  A    between atoms: _524  and  _527
REMARK  203  A    between atoms: _527  and  _528
REMARK  204  A    between atoms: _534  and  _536
REMARK  205  A    between atoms: _536  and  _537
REMARK  206  A    between atoms: _536  and  _539
REMARK  207  A    between atoms: _539  and  _540
REMARK  208  A    between atoms: _543  and  _545
REMARK  209  A    between atoms: _545  and  _546
REMARK  210  A    between atoms: _545  and  _548
REMARK  211  A    between atoms: _548  and  _549
REMARK  212  A    between atoms: _551  and  _553
REMARK  213  A    between atoms: _553  and  _554
REMARK  214  A    between atoms: _553  and  _556
REMARK  215  A    between atoms: _556  and  _557
REMARK  216  A    between atoms: _562  and  _564
REMARK  217  A    between atoms: _564  and  _565
REMARK  218  A    between atoms: _564  and  _567
REMARK  219  A    between atoms: _567  and  _568
REMARK  220  A    between atoms: _571  and  _573
REMARK  221  A    between atoms: _573  and  _574
REMARK  222  A    between atoms: _573  and  _576
REMARK  223  A    between atoms: _576  and  _577
REMARK  224  A    between atoms: _582  and  _583
REMARK  225  A    between atoms: _585  and  _587
REMARK  226  A    between atoms: _587  and  _588
REMARK  227  A    between atoms: _587  and  _590
REMARK  228  A    between atoms: _590  and  _591
REMARK  229  A    between atoms: _596  and  _597
REMARK  230  A    between atoms: _599  and  _601
REMARK  231  A    between atoms: _601  and  _602
REMARK  232  A    between atoms: _601  and  _604
REMARK  233  A    between atoms: _607  and  _609
REMARK  234  A    between atoms: _609  and  _610
REMARK  235  A    between atoms: _609  and  _612
REMARK  236  A    between atoms: _612  and  _613
REMARK  237  A    between atoms: _618  and  _620
REMARK  238  A    between atoms: _620  and  _621
REMARK  239  A    between atoms: _624  and  _626
REMARK  240  A    between atoms: _626  and  _627
REMARK  241  A    between atoms: _626  and  _629
REMARK  242  A    between atoms: _629  and  _630
REMARK  243  A    between atoms: _630  and  _631
REMARK  244  A    between atoms: _631  and  _632
REMARK  245  A    between atoms: _641  and  _643
REMARK  246  A    between atoms: _643  and  _644
REMARK  247  A    between atoms: _643  and  _646
REMARK  248  A    between atoms: _646  and  _647
REMARK  249  A    between atoms: _650  and  _652
REMARK  250  A    between atoms: _652  and  _653
REMARK  251  A    between atoms: _652  and  _655
REMARK  252  A    between atoms: _655  and  _656
REMARK  253  A    between atoms: _659  and  _661
REMARK  254  A    between atoms: _661  and  _662
REMARK  255  A    between atoms: _661  and  _664
REMARK  256  A    between atoms: _664  and  _665
REMARK                            x       y       z     vdW  Elec       q    Type
REMARK                         _______ _______ _______ _____ _____    ______ ____
ROOT
ATOM      1  O   HOH     1       7.211  19.057  21.992  0.00  0.00    +0.000 OA
ENDROOT
TORSDOF 0
REMARK  Name = ../refined-set-2016/1b6h/1b6h_pocket.pdb
REMARK  256 active torsions:
REMARK  status: ('A' for Active; 'I' for Inactive)
REMARK    1  A    between atoms: _1  and  _3
REMARK    2  A    between atoms: _3  and  _4
REMARK    3  A    between atoms: _3  and  _6
REMARK    4  A    between atoms: _6  and  _7
REMARK    5  A    between atoms: _12  and  _14
REMARK    6  A    between atoms: _14  and  _15
REMARK    7  A    between atoms: _17  and  _19
REMARK    8  A    between atoms: _19  and  _20
REMARK    9  A    between atoms: _19  and  _22
REMARK   10  A    between atoms: _22  and  _23
REMARK   11  A    between atoms: _23  and  _24
REMARK   12  A    between atoms: _29  and  _31
REMARK   13  A    between atoms: _31  and  _32
REMARK   14  A    between atoms: _31  and  _34
REMARK   15  A    between atoms: _34  and  _35
REMARK   16  A    between atoms: _38  and  _40
REMARK   17  A    between atoms: _40  and  _41
REMARK   18  A    between atoms: _40  and  _43
REMARK   19  A    between atoms: _43  and  _44
REMARK   20  A    between atoms: _44  and  _45
REMARK   21  A    between atoms: _48  and  _50
REMARK   22  A    between atoms: _50  and  _51
REMARK   23  A    between atoms: _53  and  _55
REMARK   24  A    between atoms: _55  and  _56
REMARK   25  A    between atoms: _55  and  _58
REMARK   26  A    between atoms: _62  and  _63
REMARK   27  A    between atoms: _68  and  _70
REMARK   28  A    between atoms: _70  and  _71
REMARK   29  A    between atoms: _70  and  _73
REMARK   30  A    between atoms: _73  and  _74
REMARK   31  A    between atoms: _74  and  _75
REMARK   32  A    between atoms: _78  and  _80
REMARK   33  A    between atoms: _80  and  _81
REMARK   34  A    between atoms: _80  and  _83
REMARK   35  A    between atoms: _83  and  _84
REMARK   36  A    between atoms: _86  and  _88
REMARK   37  A    between atoms: _88  and  _89
REMARK   38  A    between atoms: _88  and  _91
REMARK   39  A    between atoms: _91  and  _92
REMARK   40  A    between atoms: _97  and  _99
REMARK   41  A    between atoms: _99  and  _100
REMARK   42  A    between atoms: _99  and  _102
REMARK   43  A    between atoms: _102  and  _103
REMARK   44  A    between atoms: _103  and  _104
REMARK   45  A    between atoms: _104  and  _105
REMARK   46  A    between atoms: _115  and  _116
REMARK   47  A    between atoms: _121  and  _123
REMARK   48  A    between atoms: _123  and  _124
REMARK   49  A    between atoms: _123  and  _126
REMARK   50  A    between atoms: _126  and  _127
REMARK   51  A    between atoms: _132  and  _133
REMARK   52  A    between atoms: _135  and  _137
REMARK   53  A    between atoms: _137  and  _138
REMARK   54  A    between atoms: _137  and  _140
REMARK   55  A    between atoms: _140  and  _141
REMARK   56  A    between atoms: _146  and  _147
REMARK   57  A    between atoms: _149  and  _151
REMARK   58  A    between atoms: _151  and  _152
REMARK   59  A    between atoms: _151  and  _154
REMARK   60  A    between atoms: _157  and  _159
REMARK   61  A    between atoms: _159  and  _160
REMARK   62  A    between atoms: _159  and  _162
REMARK   63  A    between atoms: _162  and  _163
REMARK   64  A    between atoms: _169  and  _170
REMARK   65  A    between atoms: _175  and  _177
REMARK   66  A    between atoms: _177  and  _178
REMARK   67  A    between atoms: _177  and  _180
REMARK   68  A    between atoms: _180  and  _181
REMARK   69  A    between atoms: _183  and  _185
REMARK   70  A    between atoms: _185  and  _186
REMARK   71  A    between atoms: _185  and  _188
REMARK   72  A    between atoms: _188  and  _189
REMARK   73  A    between atoms: _189  and  _190
REMARK   74  A    between atoms: _193  and  _195
REMARK   75  A    between atoms: _195  and  _196
REMARK   76  A    between atoms: _195  and  _198
REMARK   77  A    between atoms: _198  and  _199
REMARK   78  A    between atoms: _204  and  _205
REMARK   79  A    between atoms: _207  and  _209
REMARK   80  A    between atoms: _209  and  _210
REMARK   81  A    between atoms: _209  and  _212
REMARK   82  A    between atoms: _212  and  _213
REMARK   83  A    between atoms: _218  and  _220
REMARK   84  A    between atoms: _220  and  _221
REMARK   85  A    between atoms: _220  and  _223
REMARK   86  A    between atoms: _223  and  _224
REMARK   87  A    between atoms: _229  and  _231
REMARK   88  A    between atoms: _231  and  _232
REMARK   89  A    between atoms: _231  and  _234
REMARK   90  A    between atoms: _234  and  _235
REMARK   91  A    between atoms: _235  and  _236
REMARK   92  A    between atoms: _238  and  _240
REMARK   93  A    between atoms: _240  and  _241
REMARK   94  A    between atoms: _240  and  _243
REMARK   95  A    between atoms: _243  and  _244
REMARK   96  A    between atoms: _249  and  _250
REMARK   97  A    between atoms: _252  and  _254
REMARK   98  A    between atoms: _254  and  _255
REMARK   99  A    between atoms: _254  and  _257
REMARK  100  A    between atoms: _257  and  _258
REMARK  101  A    between atoms: _261  and  _263
REMARK  102  A    between atoms: _263  and  _264
REMARK  103  A    between atoms: _263  and  _266
REMARK  104  A    between atoms: _266  and  _267
REMARK  105  A    between atoms: _267  and  _484
REMARK  106  A    between atoms: _268  and  _270
REMARK  107  A    between atoms: _270  and  _271
REMARK  108  A    between atoms: _270  and  _273
REMARK  109  A    between atoms: _273  and  _274
REMARK  110  A    between atoms: _277  and  _279
REMARK  111  A    between atoms: _279  and  _280
REMARK  112  A    between atoms: _279  and  _282
REMARK  113  A    between atoms: _282  and  _283
REMARK  114  A    between atoms: _288  and  _289
REMARK  115  A    between atoms: _291  and  _293
REMARK  116  A    between atoms: _293  and  _294
REMARK  117  A    between atoms: _293  and  _296
REMARK  118  A    between atoms: _296  and  _297
REMARK  119  A    between atoms: _302  and  _303
REMARK  120  A    between atoms: _305  and  _307
REMARK  121  A    between atoms: _307  and  _308
REMARK  122  A    between atoms: _307  and  _310
REMARK  123  A    between atoms: _310  and  _311
REMARK  124  A    between atoms: _311  and  _312
REMARK  125  A    between atoms: _315  and  _317
REMARK  126  A    between atoms: _317  and  _318
REMARK  127  A    between atoms: _317  and  _320
REMARK  128  A    between atoms: _320  and  _321
REMARK  129  A    between atoms: _326  and  _327
REMARK  130  A    between atoms: _329  and  _331
REMARK  131  A    between atoms: _331  and  _332
REMARK  132  A    between atoms: _331  and  _334
REMARK  133  A    between atoms: _334  and  _335
REMARK  134  A    between atoms: _340  and  _342
REMARK  135  A    between atoms: _342  and  _343
REMARK  136  A    between atoms: _342  and  _345
REMARK  137  A    between atoms: _345  and  _346
REMARK  138  A    between atoms: _349  and  _351
REMARK  139  A    between atoms: _351  and  _352
REMARK  140  A    between atoms: _351  and  _354
REMARK  141  A    between atoms: _354  and  _355
REMARK  142  A    between atoms: _360  and  _362
REMARK  143  A    between atoms: _362  and  _363
REMARK  144  A    between atoms: _362  and  _365
REMARK  145  A    between atoms: _365  and  _366
REMARK  146  A    between atoms: _376  and  _378
REMARK  147  A    between atoms: _378  and  _379
REMARK  148  A    between atoms: _378  and  _381
REMARK  149  A    between atoms: _381  and  _382
REMARK  150  A    between atoms: _388  and  _390
REMARK  151  A    between atoms: _390  and  _391
REMARK  152  A    between atoms: _390  and  _393
REMARK  153  A    between atoms: _393  and  _394
REMARK  154  A    between atoms: _397  and  _399
REMARK  155  A    between atoms: _399  and  _400
REMARK  156  A    between atoms: _399  and  _402
REMARK  157  A    between atoms: _402  and  _403
REMARK  158  A    between atoms: _406  and  _408
REMARK  159  A    between atoms: _408  and  _409
REMARK  160  A    between atoms: _408  and  _411
REMARK  161  A    between atoms: _411  and  _412
REMARK  162  A    between atoms: _412  and  _413
REMARK  163  A    between atoms: _413  and  _414
REMARK  164  A    between atoms: _423  and  _425
REMARK  165  A    between atoms: _425  and  _426
REMARK  166  A    between atoms: _425  and  _428
REMARK  167  A    between atoms: _428  and  _429
REMARK  168  A    between atoms: _434  and  _436
REMARK  169  A    between atoms: _436  and  _437
REMARK  170  A    between atoms: _436  and  _439
REMARK  171  A    between atoms: _439  and  _440
REMARK  172  A    between atoms: _441  and  _442
REMARK  173  A    between atoms: _451  and  _453
REMARK  174  A    between atoms: _453  and  _454
REMARK  175  A    between atoms: _457  and  _459
REMARK  176  A    between atoms: _459  and  _460
REMARK  177  A    between atoms: _462  and  _464
REMARK  178  A    between atoms: _464  and  _465
REMARK  179  A    between atoms: _464  and  _467
REMARK  180  A    between atoms: _467  and  _468
REMARK  181  A    between atoms: _478  and  _480
REMARK  182  A    between atoms: _480  and  _481
REMARK  183  A    between atoms: _480  and  _483
REMARK  184  A    between atoms: _483  and  _484
REMARK  185  A    between atoms: _485  and  _487
REMARK  186  A    between atoms: _487  and  _488
REMARK  187  A    between atoms: _491  and  _493
REMARK  188  A    between atoms: _493  and  _494
REMARK  189  A    between atoms: _493  and  _496
REMARK  190  A    between atoms: _496  and  _497
REMARK  191  A    between atoms: _500  and  _502
REMARK  192  A    between atoms: _502  and  _503
REMARK  193  A    between atoms: _502  and  _505
REMARK  194  A    between atoms: _505  and  _506
REMARK  195  A    between atoms: _511  and  _512
REMARK  196  A    between atoms: _514  and  _516
REMARK  197  A    between atoms: _516  and  _517
REMARK  198  A    between atoms: _516  and  _519
REMARK  199  A    between atoms: _519  and  _520
REMARK  200  A    between atoms: _522  and  _524
REMARK  201  A    between atoms: _524  and  _525
REMARK  202  A    between atoms: _524  and  _527
REMARK  203  A    between atoms: _527  and  _528
REMARK  204  A    between atoms: _534  and  _536
REMARK  205  A    between atoms: _536  and  _537
REMARK  206  A    between atoms: _536  and  _539
REMARK  207  A    between atoms: _539  and  _540
REMARK  208  A    between atoms: _543  and  _545
REMARK  209  A    between atoms: _545  and  _546
REMARK  210  A    between atoms: _545  and  _548
REMARK  211  A    between atoms: _548  and  _549
REMARK  212  A    between atoms: _551  and  _553
REMARK  213  A    between atoms: _553  and  _554
REMARK  214  A    between atoms: _553  and  _556
REMARK  215  A    between atoms: _556  and  _557
REMARK  216  A    between atoms: _562  and  _564
REMARK  217  A    between atoms: _564  and  _565
REMARK  218  A    between atoms: _564  and  _567
REMARK  219  A    between atoms: _567  and  _568
REMARK  220  A    between atoms: _571  and  _573
REMARK  221  A    between atoms: _573  and  _574
REMARK  222  A    between atoms: _573  and  _576
REMARK  223  A    between atoms: _576  and  _577
REMARK  224  A    between atoms: _582  and  _583
REMARK  225  A    between atoms: _585  and  _587
REMARK  226  A    between atoms: _587  and  _588
REMARK  227  A    between atoms: _587  and  _590
REMARK  228  A    between atoms: _590  and  _591
REMARK  229  A    between atoms: _596  and  _597
REMARK  230  A    between atoms: _599  and  _601
REMARK  231  A    between atoms: _601  and  _602
REMARK  232  A    between atoms: _601  and  _604
REMARK  233  A    between atoms: _607  and  _609
REMARK  234  A    between atoms: _609  and  _610
REMARK  235  A    between atoms: _609  and  _612
REMARK  236  A    between atoms: _612  and  _613
REMARK  237  A    between atoms: _618  and  _620
REMARK  238  A    between atoms: _620  and  _621
REMARK  239  A    between atoms: _624  and  _626
REMARK  240  A    between atoms: _626  and  _627
REMARK  241  A    between atoms: _626  and  _629
REMARK  242  A    between atoms: _629  and  _630
REMARK  243  A    between atoms: _630  and  _631
REMARK  244  A    between atoms: _631  and  _632
REMARK  245  A    between atoms: _641  and  _643
REMARK  246  A    between atoms: _643  and  _644
REMARK  247  A    between atoms: _643  and  _646
REMARK  248  A    between atoms: _646  and  _647
REMARK  249  A    between atoms: _650  and  _652
REMARK  250  A    between atoms: _652  and  _653
REMARK  251  A    between atoms: _652  and  _655
REMARK  252  A    between atoms: _655  and  _656
REMARK  253  A    between atoms: _659  and  _661
REMARK  254  A    between atoms: _661  and  _662
REMARK  255  A    between atoms: _661  and  _664
REMARK  256  A    between atoms: _664  and  _665
REMARK                            x       y       z     vdW  Elec       q    Type
REMARK                         _______ _______ _______ _____ _____    ______ ____
ROOT
ATOM      1  O   HOH     1       8.039  19.523  24.236  0.00  0.00    +0.000 OA
ENDROOT
TORSDOF 0
REMARK  Name = ../refined-set-2016/1b6h/1b6h_pocket.pdb
REMARK  256 active torsions:
REMARK  status: ('A' for Active; 'I' for Inactive)
REMARK    1  A    between atoms: _1  and  _3
REMARK    2  A    between atoms: _3  and  _4
REMARK    3  A    between atoms: _3  and  _6
REMARK    4  A    between atoms: _6  and  _7
REMARK    5  A    between atoms: _12  and  _14
REMARK    6  A    between atoms: _14  and  _15
REMARK    7  A    between atoms: _17  and  _19
REMARK    8  A    between atoms: _19  and  _20
REMARK    9  A    between atoms: _19  and  _22
REMARK   10  A    between atoms: _22  and  _23
REMARK   11  A    between atoms: _23  and  _24
REMARK   12  A    between atoms: _29  and  _31
REMARK   13  A    between atoms: _31  and  _32
REMARK   14  A    between atoms: _31  and  _34
REMARK   15  A    between atoms: _34  and  _35
REMARK   16  A    between atoms: _38  and  _40
REMARK   17  A    between atoms: _40  and  _41
REMARK   18  A    between atoms: _40  and  _43
REMARK   19  A    between atoms: _43  and  _44
REMARK   20  A    between atoms: _44  and  _45
REMARK   21  A    between atoms: _48  and  _50
REMARK   22  A    between atoms: _50  and  _51
REMARK   23  A    between atoms: _53  and  _55
REMARK   24  A    between atoms: _55  and  _56
REMARK   25  A    between atoms: _55  and  _58
REMARK   26  A    between atoms: _62  and  _63
REMARK   27  A    between atoms: _68  and  _70
REMARK   28  A    between atoms: _70  and  _71
REMARK   29  A    between atoms: _70  and  _73
REMARK   30  A    between atoms: _73  and  _74
REMARK   31  A    between atoms: _74  and  _75
REMARK   32  A    between atoms: _78  and  _80
REMARK   33  A    between atoms: _80  and  _81
REMARK   34  A    between atoms: _80  and  _83
REMARK   35  A    between atoms: _83  and  _84
REMARK   36  A    between atoms: _86  and  _88
REMARK   37  A    between atoms: _88  and  _89
REMARK   38  A    between atoms: _88  and  _91
REMARK   39  A    between atoms: _91  and  _92
REMARK   40  A    between atoms: _97  and  _99
REMARK   41  A    between atoms: _99  and  _100
REMARK   42  A    between atoms: _99  and  _102
REMARK   43  A    between atoms: _102  and  _103
REMARK   44  A    between atoms: _103  and  _104
REMARK   45  A    between atoms: _104  and  _105
REMARK   46  A    between atoms: _115  and  _116
REMARK   47  A    between atoms: _121  and  _123
REMARK   48  A    between atoms: _123  and  _124
REMARK   49  A    between atoms: _123  and  _126
REMARK   50  A    between atoms: _126  and  _127
REMARK   51  A    between atoms: _132  and  _133
REMARK   52  A    between atoms: _135  and  _137
REMARK   53  A    between atoms: _137  and  _138
REMARK   54  A    between atoms: _137  and  _140
REMARK   55  A    between atoms: _140  and  _141
REMARK   56  A    between atoms: _146  and  _147
REMARK   57  A    between atoms: _149  and  _151
REMARK   58  A    between atoms: _151  and  _152
REMARK   59  A    between atoms: _151  and  _154
REMARK   60  A    between atoms: _157  and  _159
REMARK   61  A    between atoms: _159  and  _160
REMARK   62  A    between atoms: _159  and  _162
REMARK   63  A    between atoms: _162  and  _163
REMARK   64  A    between atoms: _169  and  _170
REMARK   65  A    between atoms: _175  and  _177
REMARK   66  A    between atoms: _177  and  _178
REMARK   67  A    between atoms: _177  and  _180
REMARK   68  A    between atoms: _180  and  _181
REMARK   69  A    between atoms: _183  and  _185
REMARK   70  A    between atoms: _185  and  _186
REMARK   71  A    between atoms: _185  and  _188
REMARK   72  A    between atoms: _188  and  _189
REMARK   73  A    between atoms: _189  and  _190
REMARK   74  A    between atoms: _193  and  _195
REMARK   75  A    between atoms: _195  and  _196
REMARK   76  A    between atoms: _195  and  _198
REMARK   77  A    between atoms: _198  and  _199
REMARK   78  A    between atoms: _204  and  _205
REMARK   79  A    between atoms: _207  and  _209
REMARK   80  A    between atoms: _209  and  _210
REMARK   81  A    between atoms: _209  and  _212
REMARK   82  A    between atoms: _212  and  _213
REMARK   83  A    between atoms: _218  and  _220
REMARK   84  A    between atoms: _220  and  _221
REMARK   85  A    between atoms: _220  and  _223
REMARK   86  A    between atoms: _223  and  _224
REMARK   87  A    between atoms: _229  and  _231
REMARK   88  A    between atoms: _231  and  _232
REMARK   89  A    between atoms: _231  and  _234
REMARK   90  A    between atoms: _234  and  _235
REMARK   91  A    between atoms: _235  and  _236
REMARK   92  A    between atoms: _238  and  _240
REMARK   93  A    between atoms: _240  and  _241
REMARK   94  A    between atoms: _240  and  _243
REMARK   95  A    between atoms: _243  and  _244
REMARK   96  A    between atoms: _249  and  _250
REMARK   97  A    between atoms: _252  and  _254
REMARK   98  A    between atoms: _254  and  _255
REMARK   99  A    between atoms: _254  and  _257
REMARK  100  A    between atoms: _257  and  _258
REMARK  101  A    between atoms: _261  and  _263
REMARK  102  A    between atoms: _263  and  _264
REMARK  103  A    between atoms: _263  and  _266
REMARK  104  A    between atoms: _266  and  _267
REMARK  105  A    between atoms: _267  and  _484
REMARK  106  A    between atoms: _268  and  _270
REMARK  107  A    between atoms: _270  and  _271
REMARK  108  A    between atoms: _270  and  _273
REMARK  109  A    between atoms: _273  and  _274
REMARK  110  A    between atoms: _277  and  _279
REMARK  111  A    between atoms: _279  and  _280
REMARK  112  A    between atoms: _279  and  _282
REMARK  113  A    between atoms: _282  and  _283
REMARK  114  A    between atoms: _288  and  _289
REMARK  115  A    between atoms: _291  and  _293
REMARK  116  A    between atoms: _293  and  _294
REMARK  117  A    between atoms: _293  and  _296
REMARK  118  A    between atoms: _296  and  _297
REMARK  119  A    between atoms: _302  and  _303
REMARK  120  A    between atoms: _305  and  _307
REMARK  121  A    between atoms: _307  and  _308
REMARK  122  A    between atoms: _307  and  _310
REMARK  123  A    between atoms: _310  and  _311
REMARK  124  A    between atoms: _311  and  _312
REMARK  125  A    between atoms: _315  and  _317
REMARK  126  A    between atoms: _317  and  _318
REMARK  127  A    between atoms: _317  and  _320
REMARK  128  A    between atoms: _320  and  _321
REMARK  129  A    between atoms: _326  and  _327
REMARK  130  A    between atoms: _329  and  _331
REMARK  131  A    between atoms: _331  and  _332
REMARK  132  A    between atoms: _331  and  _334
REMARK  133  A    between atoms: _334  and  _335
REMARK  134  A    between atoms: _340  and  _342
REMARK  135  A    between atoms: _342  and  _343
REMARK  136  A    between atoms: _342  and  _345
REMARK  137  A    between atoms: _345  and  _346
REMARK  138  A    between atoms: _349  and  _351
REMARK  139  A    between atoms: _351  and  _352
REMARK  140  A    between atoms: _351  and  _354
REMARK  141  A    between atoms: _354  and  _355
REMARK  142  A    between atoms: _360  and  _362
REMARK  143  A    between atoms: _362  and  _363
REMARK  144  A    between atoms: _362  and  _365
REMARK  145  A    between atoms: _365  and  _366
REMARK  146  A    between atoms: _376  and  _378
REMARK  147  A    between atoms: _378  and  _379
REMARK  148  A    between atoms: _378  and  _381
REMARK  149  A    between atoms: _381  and  _382
REMARK  150  A    between atoms: _388  and  _390
REMARK  151  A    between atoms: _390  and  _391
REMARK  152  A    between atoms: _390  and  _393
REMARK  153  A    between atoms: _393  and  _394
REMARK  154  A    between atoms: _397  and  _399
REMARK  155  A    between atoms: _399  and  _400
REMARK  156  A    between atoms: _399  and  _402
REMARK  157  A    between atoms: _402  and  _403
REMARK  158  A    between atoms: _406  and  _408
REMARK  159  A    between atoms: _408  and  _409
REMARK  160  A    between atoms: _408  and  _411
REMARK  161  A    between atoms: _411  and  _412
REMARK  162  A    between atoms: _412  and  _413
REMARK  163  A    between atoms: _413  and  _414
REMARK  164  A    between atoms: _423  and  _425
REMARK  165  A    between atoms: _425  and  _426
REMARK  166  A    between atoms: _425  and  _428
REMARK  167  A    between atoms: _428  and  _429
REMARK  168  A    between atoms: _434  and  _436
REMARK  169  A    between atoms: _436  and  _437
REMARK  170  A    between atoms: _436  and  _439
REMARK  171  A    between atoms: _439  and  _440
REMARK  172  A    between atoms: _441  and  _442
REMARK  173  A    between atoms: _451  and  _453
REMARK  174  A    between atoms: _453  and  _454
REMARK  175  A    between atoms: _457  and  _459
REMARK  176  A    between atoms: _459  and  _460
REMARK  177  A    between atoms: _462  and  _464
REMARK  178  A    between atoms: _464  and  _465
REMARK  179  A    between atoms: _464  and  _467
REMARK  180  A    between atoms: _467  and  _468
REMARK  181  A    between atoms: _478  and  _480
REMARK  182  A    between atoms: _480  and  _481
REMARK  183  A    between atoms: _480  and  _483
REMARK  184  A    between atoms: _483  and  _484
REMARK  185  A    between atoms: _485  and  _487
REMARK  186  A    between atoms: _487  and  _488
REMARK  187  A    between atoms: _491  and  _493
REMARK  188  A    between atoms: _493  and  _494
REMARK  189  A    between atoms: _493  and  _496
REMARK  190  A    between atoms: _496  and  _497
REMARK  191  A    between atoms: _500  and  _502
REMARK  192  A    between atoms: _502  and  _503
REMARK  193  A    between atoms: _502  and  _505
REMARK  194  A    between atoms: _505  and  _506
REMARK  195  A    between atoms: _511  and  _512
REMARK  196  A    between atoms: _514  and  _516
REMARK  197  A    between atoms: _516  and  _517
REMARK  198  A    between atoms: _516  and  _519
REMARK  199  A    between atoms: _519  and  _520
REMARK  200  A    between atoms: _522  and  _524
REMARK  201  A    between atoms: _524  and  _525
REMARK  202  A    between atoms: _524  and  _527
REMARK  203  A    between atoms: _527  and  _528
REMARK  204  A    between atoms: _534  and  _536
REMARK  205  A    between atoms: _536  and  _537
REMARK  206  A    between atoms: _536  and  _539
REMARK  207  A    between atoms: _539  and  _540
REMARK  208  A    between atoms: _543  and  _545
REMARK  209  A    between atoms: _545  and  _546
REMARK  210  A    between atoms: _545  and  _548
REMARK  211  A    between atoms: _548  and  _549
REMARK  212  A    between atoms: _551  and  _553
REMARK  213  A    between atoms: _553  and  _554
REMARK  214  A    between atoms: _553  and  _556
REMARK  215  A    between atoms: _556  and  _557
REMARK  216  A    between atoms: _562  and  _564
REMARK  217  A    between atoms: _564  and  _565
REMARK  218  A    between atoms: _564  and  _567
REMARK  219  A    between atoms: _567  and  _568
REMARK  220  A    between atoms: _571  and  _573
REMARK  221  A    between atoms: _573  and  _574
REMARK  222  A    between atoms: _573  and  _576
REMARK  223  A    between atoms: _576  and  _577
REMARK  224  A    between atoms: _582  and  _583
REMARK  225  A    between atoms: _585  and  _587
REMARK  226  A    between atoms: _587  and  _588
REMARK  227  A    between atoms: _587  and  _590
REMARK  228  A    between atoms: _590  and  _591
REMARK  229  A    between atoms: _596  and  _597
REMARK  230  A    between atoms: _599  and  _601
REMARK  231  A    between atoms: _601  and  _602
REMARK  232  A    between atoms: _601  and  _604
REMARK  233  A    between atoms: _607  and  _609
REMARK  234  A    between atoms: _609  and  _610
REMARK  235  A    between atoms: _609  and  _612
REMARK  236  A    between atoms: _612  and  _613
REMARK  237  A    between atoms: _618  and  _620
REMARK  238  A    between atoms: _620  and  _621
REMARK  239  A    between atoms: _624  and  _626
REMARK  240  A    between atoms: _626  and  _627
REMARK  241  A    between atoms: _626  and  _629
REMARK  242  A    between atoms: _629  and  _630
REMARK  243  A    between atoms: _630  and  _631
REMARK  244  A    between atoms: _631  and  _632
REMARK  245  A    between atoms: _641  and  _643
REMARK  246  A    between atoms: _643  and  _644
REMARK  247  A    between atoms: _643  and  _646
REMARK  248  A    between atoms: _646  and  _647
REMARK  249  A    between atoms: _650  and  _652
REMARK  250  A    between atoms: _652  and  _653
REMARK  251  A    between atoms: _652  and  _655
REMARK  252  A    between atoms: _655  and  _656
REMARK  253  A    between atoms: _659  and  _661
REMARK  254  A    between atoms: _661  and  _662
REMARK  255  A    between atoms: _661  and  _664
REMARK  256  A    between atoms: _664  and  _665
REMARK                            x       y       z     vdW  Elec       q    Type
REMARK                         _______ _______ _______ _____ _____    ______ ____
ROOT
ATOM      1  O   HOH     1       6.274  20.514  21.084  0.00  0.00    +0.000 OA
ENDROOT
TORSDOF 0
REMARK  Name = ../refined-set-2016/1b6h/1b6h_pocket.pdb
REMARK  256 active torsions:
REMARK  status: ('A' for Active; 'I' for Inactive)
REMARK    1  A    between atoms: _1  and  _3
REMARK    2  A    between atoms: _3  and  _4
REMARK    3  A    between atoms: _3  and  _6
REMARK    4  A    between atoms: _6  and  _7
REMARK    5  A    between atoms: _12  and  _14
REMARK    6  A    between atoms: _14  and  _15
REMARK    7  A    between atoms: _17  and  _19
REMARK    8  A    between atoms: _19  and  _20
REMARK    9  A    between atoms: _19  and  _22
REMARK   10  A    between atoms: _22  and  _23
REMARK   11  A    between atoms: _23  and  _24
REMARK   12  A    between atoms: _29  and  _31
REMARK   13  A    between atoms: _31  and  _32
REMARK   14  A    between atoms: _31  and  _34
REMARK   15  A    between atoms: _34  and  _35
REMARK   16  A    between atoms: _38  and  _40
REMARK   17  A    between atoms: _40  and  _41
REMARK   18  A    between atoms: _40  and  _43
REMARK   19  A    between atoms: _43  and  _44
REMARK   20  A    between atoms: _44  and  _45
REMARK   21  A    between atoms: _48  and  _50
REMARK   22  A    between atoms: _50  and  _51
REMARK   23  A    between atoms: _53  and  _55
REMARK   24  A    between atoms: _55  and  _56
REMARK   25  A    between atoms: _55  and  _58
REMARK   26  A    between atoms: _62  and  _63
REMARK   27  A    between atoms: _68  and  _70
REMARK   28  A    between atoms: _70  and  _71
REMARK   29  A    between atoms: _70  and  _73
REMARK   30  A    between atoms: _73  and  _74
REMARK   31  A    between atoms: _74  and  _75
REMARK   32  A    between atoms: _78  and  _80
REMARK   33  A    between atoms: _80  and  _81
REMARK   34  A    between atoms: _80  and  _83
REMARK   35  A    between atoms: _83  and  _84
REMARK   36  A    between atoms: _86  and  _88
REMARK   37  A    between atoms: _88  and  _89
REMARK   38  A    between atoms: _88  and  _91
REMARK   39  A    between atoms: _91  and  _92
REMARK   40  A    between atoms: _97  and  _99
REMARK   41  A    between atoms: _99  and  _100
REMARK   42  A    between atoms: _99  and  _102
REMARK   43  A    between atoms: _102  and  _103
REMARK   44  A    between atoms: _103  and  _104
REMARK   45  A    between atoms: _104  and  _105
REMARK   46  A    between atoms: _115  and  _116
REMARK   47  A    between atoms: _121  and  _123
REMARK   48  A    between atoms: _123  and  _124
REMARK   49  A    between atoms: _123  and  _126
REMARK   50  A    between atoms: _126  and  _127
REMARK   51  A    between atoms: _132  and  _133
REMARK   52  A    between atoms: _135  and  _137
REMARK   53  A    between atoms: _137  and  _138
REMARK   54  A    between atoms: _137  and  _140
REMARK   55  A    between atoms: _140  and  _141
REMARK   56  A    between atoms: _146  and  _147
REMARK   57  A    between atoms: _149  and  _151
REMARK   58  A    between atoms: _151  and  _152
REMARK   59  A    between atoms: _151  and  _154
REMARK   60  A    between atoms: _157  and  _159
REMARK   61  A    between atoms: _159  and  _160
REMARK   62  A    between atoms: _159  and  _162
REMARK   63  A    between atoms: _162  and  _163
REMARK   64  A    between atoms: _169  and  _170
REMARK   65  A    between atoms: _175  and  _177
REMARK   66  A    between atoms: _177  and  _178
REMARK   67  A    between atoms: _177  and  _180
REMARK   68  A    between atoms: _180  and  _181
REMARK   69  A    between atoms: _183  and  _185
REMARK   70  A    between atoms: _185  and  _186
REMARK   71  A    between atoms: _185  and  _188
REMARK   72  A    between atoms: _188  and  _189
REMARK   73  A    between atoms: _189  and  _190
REMARK   74  A    between atoms: _193  and  _195
REMARK   75  A    between atoms: _195  and  _196
REMARK   76  A    between atoms: _195  and  _198
REMARK   77  A    between atoms: _198  and  _199
REMARK   78  A    between atoms: _204  and  _205
REMARK   79  A    between atoms: _207  and  _209
REMARK   80  A    between atoms: _209  and  _210
REMARK   81  A    between atoms: _209  and  _212
REMARK   82  A    between atoms: _212  and  _213
REMARK   83  A    between atoms: _218  and  _220
REMARK   84  A    between atoms: _220  and  _221
REMARK   85  A    between atoms: _220  and  _223
REMARK   86  A    between atoms: _223  and  _224
REMARK   87  A    between atoms: _229  and  _231
REMARK   88  A    between atoms: _231  and  _232
REMARK   89  A    between atoms: _231  and  _234
REMARK   90  A    between atoms: _234  and  _235
REMARK   91  A    between atoms: _235  and  _236
REMARK   92  A    between atoms: _238  and  _240
REMARK   93  A    between atoms: _240  and  _241
REMARK   94  A    between atoms: _240  and  _243
REMARK   95  A    between atoms: _243  and  _244
REMARK   96  A    between atoms: _249  and  _250
REMARK   97  A    between atoms: _252  and  _254
REMARK   98  A    between atoms: _254  and  _255
REMARK   99  A    between atoms: _254  and  _257
REMARK  100  A    between atoms: _257  and  _258
REMARK  101  A    between atoms: _261  and  _263
REMARK  102  A    between atoms: _263  and  _264
REMARK  103  A    between atoms: _263  and  _266
REMARK  104  A    between atoms: _266  and  _267
REMARK  105  A    between atoms: _267  and  _484
REMARK  106  A    between atoms: _268  and  _270
REMARK  107  A    between atoms: _270  and  _271
REMARK  108  A    between atoms: _270  and  _273
REMARK  109  A    between atoms: _273  and  _274
REMARK  110  A    between atoms: _277  and  _279
REMARK  111  A    between atoms: _279  and  _280
REMARK  112  A    between atoms: _279  and  _282
REMARK  113  A    between atoms: _282  and  _283
REMARK  114  A    between atoms: _288  and  _289
REMARK  115  A    between atoms: _291  and  _293
REMARK  116  A    between atoms: _293  and  _294
REMARK  117  A    between atoms: _293  and  _296
REMARK  118  A    between atoms: _296  and  _297
REMARK  119  A    between atoms: _302  and  _303
REMARK  120  A    between atoms: _305  and  _307
REMARK  121  A    between atoms: _307  and  _308
REMARK  122  A    between atoms: _307  and  _310
REMARK  123  A    between atoms: _310  and  _311
REMARK  124  A    between atoms: _311  and  _312
REMARK  125  A    between atoms: _315  and  _317
REMARK  126  A    between atoms: _317  and  _318
REMARK  127  A    between atoms: _317  and  _320
REMARK  128  A    between atoms: _320  and  _321
REMARK  129  A    between atoms: _326  and  _327
REMARK  130  A    between atoms: _329  and  _331
REMARK  131  A    between atoms: _331  and  _332
REMARK  132  A    between atoms: _331  and  _334
REMARK  133  A    between atoms: _334  and  _335
REMARK  134  A    between atoms: _340  and  _342
REMARK  135  A    between atoms: _342  and  _343
REMARK  136  A    between atoms: _342  and  _345
REMARK  137  A    between atoms: _345  and  _346
REMARK  138  A    between atoms: _349  and  _351
REMARK  139  A    between atoms: _351  and  _352
REMARK  140  A    between atoms: _351  and  _354
REMARK  141  A    between atoms: _354  and  _355
REMARK  142  A    between atoms: _360  and  _362
REMARK  143  A    between atoms: _362  and  _363
REMARK  144  A    between atoms: _362  and  _365
REMARK  145  A    between atoms: _365  and  _366
REMARK  146  A    between atoms: _376  and  _378
REMARK  147  A    between atoms: _378  and  _379
REMARK  148  A    between atoms: _378  and  _381
REMARK  149  A    between atoms: _381  and  _382
REMARK  150  A    between atoms: _388  and  _390
REMARK  151  A    between atoms: _390  and  _391
REMARK  152  A    between atoms: _390  and  _393
REMARK  153  A    between atoms: _393  and  _394
REMARK  154  A    between atoms: _397  and  _399
REMARK  155  A    between atoms: _399  and  _400
REMARK  156  A    between atoms: _399  and  _402
REMARK  157  A    between atoms: _402  and  _403
REMARK  158  A    between atoms: _406  and  _408
REMARK  159  A    between atoms: _408  and  _409
REMARK  160  A    between atoms: _408  and  _411
REMARK  161  A    between atoms: _411  and  _412
REMARK  162  A    between atoms: _412  and  _413
REMARK  163  A    between atoms: _413  and  _414
REMARK  164  A    between atoms: _423  and  _425
REMARK  165  A    between atoms: _425  and  _426
REMARK  166  A    between atoms: _425  and  _428
REMARK  167  A    between atoms: _428  and  _429
REMARK  168  A    between atoms: _434  and  _436
REMARK  169  A    between atoms: _436  and  _437
REMARK  170  A    between atoms: _436  and  _439
REMARK  171  A    between atoms: _439  and  _440
REMARK  172  A    between atoms: _441  and  _442
REMARK  173  A    between atoms: _451  and  _453
REMARK  174  A    between atoms: _453  and  _454
REMARK  175  A    between atoms: _457  and  _459
REMARK  176  A    between atoms: _459  and  _460
REMARK  177  A    between atoms: _462  and  _464
REMARK  178  A    between atoms: _464  and  _465
REMARK  179  A    between atoms: _464  and  _467
REMARK  180  A    between atoms: _467  and  _468
REMARK  181  A    between atoms: _478  and  _480
REMARK  182  A    between atoms: _480  and  _481
REMARK  183  A    between atoms: _480  and  _483
REMARK  184  A    between atoms: _483  and  _484
REMARK  185  A    between atoms: _485  and  _487
REMARK  186  A    between atoms: _487  and  _488
REMARK  187  A    between atoms: _491  and  _493
REMARK  188  A    between atoms: _493  and  _494
REMARK  189  A    between atoms: _493  and  _496
REMARK  190  A    between atoms: _496  and  _497
REMARK  191  A    between atoms: _500  and  _502
REMARK  192  A    between atoms: _502  and  _503
REMARK  193  A    between atoms: _502  and  _505
REMARK  194  A    between atoms: _505  and  _506
REMARK  195  A    between atoms: _511  and  _512
REMARK  196  A    between atoms: _514  and  _516
REMARK  197  A    between atoms: _516  and  _517
REMARK  198  A    between atoms: _516  and  _519
REMARK  199  A    between atoms: _519  and  _520
REMARK  200  A    between atoms: _522  and  _524
REMARK  201  A    between atoms: _524  and  _525
REMARK  202  A    between atoms: _524  and  _527
REMARK  203  A    between atoms: _527  and  _528
REMARK  204  A    between atoms: _534  and  _536
REMARK  205  A    between atoms: _536  and  _537
REMARK  206  A    between atoms: _536  and  _539
REMARK  207  A    between atoms: _539  and  _540
REMARK  208  A    between atoms: _543  and  _545
REMARK  209  A    between atoms: _545  and  _546
REMARK  210  A    between atoms: _545  and  _548
REMARK  211  A    between atoms: _548  and  _549
REMARK  212  A    between atoms: _551  and  _553
REMARK  213  A    between atoms: _553  and  _554
REMARK  214  A    between atoms: _553  and  _556
REMARK  215  A    between atoms: _556  and  _557
REMARK  216  A    between atoms: _562  and  _564
REMARK  217  A    between atoms: _564  and  _565
REMARK  218  A    between atoms: _564  and  _567
REMARK  219  A    between atoms: _567  and  _568
REMARK  220  A    between atoms: _571  and  _573
REMARK  221  A    between atoms: _573  and  _574
REMARK  222  A    between atoms: _573  and  _576
REMARK  223  A    between atoms: _576  and  _577
REMARK  224  A    between atoms: _582  and  _583
REMARK  225  A    between atoms: _585  and  _587
REMARK  226  A    between atoms: _587  and  _588
REMARK  227  A    between atoms: _587  and  _590
REMARK  228  A    between atoms: _590  and  _591
REMARK  229  A    between atoms: _596  and  _597
REMARK  230  A    between atoms: _599  and  _601
REMARK  231  A    between atoms: _601  and  _602
REMARK  232  A    between atoms: _601  and  _604
REMARK  233  A    between atoms: _607  and  _609
REMARK  234  A    between atoms: _609  and  _610
REMARK  235  A    between atoms: _609  and  _612
REMARK  236  A    between atoms: _612  and  _613
REMARK  237  A    between atoms: _618  and  _620
REMARK  238  A    between atoms: _620  and  _621
REMARK  239  A    between atoms: _624  and  _626
REMARK  240  A    between atoms: _626  and  _627
REMARK  241  A    between atoms: _626  and  _629
REMARK  242  A    between atoms: _629  and  _630
REMARK  243  A    between atoms: _630  and  _631
REMARK  244  A    between atoms: _631  and  _632
REMARK  245  A    between atoms: _641  and  _643
REMARK  246  A    between atoms: _643  and  _644
REMARK  247  A    between atoms: _643  and  _646
REMARK  248  A    between atoms: _646  and  _647
REMARK  249  A    between atoms: _650  and  _652
REMARK  250  A    between atoms: _652  and  _653
REMARK  251  A    between atoms: _652  and  _655
REMARK  252  A    between atoms: _655  and  _656
REMARK  253  A    between atoms: _659  and  _661
REMARK  254  A    between atoms: _661  and  _662
REMARK  255  A    between atoms: _661  and  _664
REMARK  256  A    between atoms: _664  and  _665
REMARK                            x       y       z     vdW  Elec       q    Type
REMARK                         _______ _______ _______ _____ _____    ______ ____
ROOT
ATOM      1  O   HOH     1      -8.216  13.475  16.391  0.00  0.00    +0.000 OA
ENDROOT
TORSDOF 0
REMARK  Name = ../refined-set-2016/1b6h/1b6h_pocket.pdb
REMARK  256 active torsions:
REMARK  status: ('A' for Active; 'I' for Inactive)
REMARK    1  A    between atoms: _1  and  _3
REMARK    2  A    between atoms: _3  and  _4
REMARK    3  A    between atoms: _3  and  _6
REMARK    4  A    between atoms: _6  and  _7
REMARK    5  A    between atoms: _12  and  _14
REMARK    6  A    between atoms: _14  and  _15
REMARK    7  A    between atoms: _17  and  _19
REMARK    8  A    between atoms: _19  and  _20
REMARK    9  A    between atoms: _19  and  _22
REMARK   10  A    between atoms: _22  and  _23
REMARK   11  A    between atoms: _23  and  _24
REMARK   12  A    between atoms: _29  and  _31
REMARK   13  A    between atoms: _31  and  _32
REMARK   14  A    between atoms: _31  and  _34
REMARK   15  A    between atoms: _34  and  _35
REMARK   16  A    between atoms: _38  and  _40
REMARK   17  A    between atoms: _40  and  _41
REMARK   18  A    between atoms: _40  and  _43
REMARK   19  A    between atoms: _43  and  _44
REMARK   20  A    between atoms: _44  and  _45
REMARK   21  A    between atoms: _48  and  _50
REMARK   22  A    between atoms: _50  and  _51
REMARK   23  A    between atoms: _53  and  _55
REMARK   24  A    between atoms: _55  and  _56
REMARK   25  A    between atoms: _55  and  _58
REMARK   26  A    between atoms: _62  and  _63
REMARK   27  A    between atoms: _68  and  _70
REMARK   28  A    between atoms: _70  and  _71
REMARK   29  A    between atoms: _70  and  _73
REMARK   30  A    between atoms: _73  and  _74
REMARK   31  A    between atoms: _74  and  _75
REMARK   32  A    between atoms: _78  and  _80
REMARK   33  A    between atoms: _80  and  _81
REMARK   34  A    between atoms: _80  and  _83
REMARK   35  A    between atoms: _83  and  _84
REMARK   36  A    between atoms: _86  and  _88
REMARK   37  A    between atoms: _88  and  _89
REMARK   38  A    between atoms: _88  and  _91
REMARK   39  A    between atoms: _91  and  _92
REMARK   40  A    between atoms: _97  and  _99
REMARK   41  A    between atoms: _99  and  _100
REMARK   42  A    between atoms: _99  and  _102
REMARK   43  A    between atoms: _102  and  _103
REMARK   44  A    between atoms: _103  and  _104
REMARK   45  A    between atoms: _104  and  _105
REMARK   46  A    between atoms: _115  and  _116
REMARK   47  A    between atoms: _121  and  _123
REMARK   48  A    between atoms: _123  and  _124
REMARK   49  A    between atoms: _123  and  _126
REMARK   50  A    between atoms: _126  and  _127
REMARK   51  A    between atoms: _132  and  _133
REMARK   52  A    between atoms: _135  and  _137
REMARK   53  A    between atoms: _137  and  _138
REMARK   54  A    between atoms: _137  and  _140
REMARK   55  A    between atoms: _140  and  _141
REMARK   56  A    between atoms: _146  and  _147
REMARK   57  A    between atoms: _149  and  _151
REMARK   58  A    between atoms: _151  and  _152
REMARK   59  A    between atoms: _151  and  _154
REMARK   60  A    between atoms: _157  and  _159
REMARK   61  A    between atoms: _159  and  _160
REMARK   62  A    between atoms: _159  and  _162
REMARK   63  A    between atoms: _162  and  _163
REMARK   64  A    between atoms: _169  and  _170
REMARK   65  A    between atoms: _175  and  _177
REMARK   66  A    between atoms: _177  and  _178
REMARK   67  A    between atoms: _177  and  _180
REMARK   68  A    between atoms: _180  and  _181
REMARK   69  A    between atoms: _183  and  _185
REMARK   70  A    between atoms: _185  and  _186
REMARK   71  A    between atoms: _185  and  _188
REMARK   72  A    between atoms: _188  and  _189
REMARK   73  A    between atoms: _189  and  _190
REMARK   74  A    between atoms: _193  and  _195
REMARK   75  A    between atoms: _195  and  _196
REMARK   76  A    between atoms: _195  and  _198
REMARK   77  A    between atoms: _198  and  _199
REMARK   78  A    between atoms: _204  and  _205
REMARK   79  A    between atoms: _207  and  _209
REMARK   80  A    between atoms: _209  and  _210
REMARK   81  A    between atoms: _209  and  _212
REMARK   82  A    between atoms: _212  and  _213
REMARK   83  A    between atoms: _218  and  _220
REMARK   84  A    between atoms: _220  and  _221
REMARK   85  A    between atoms: _220  and  _223
REMARK   86  A    between atoms: _223  and  _224
REMARK   87  A    between atoms: _229  and  _231
REMARK   88  A    between atoms: _231  and  _232
REMARK   89  A    between atoms: _231  and  _234
REMARK   90  A    between atoms: _234  and  _235
REMARK   91  A    between atoms: _235  and  _236
REMARK   92  A    between atoms: _238  and  _240
REMARK   93  A    between atoms: _240  and  _241
REMARK   94  A    between atoms: _240  and  _243
REMARK   95  A    between atoms: _243  and  _244
REMARK   96  A    between atoms: _249  and  _250
REMARK   97  A    between atoms: _252  and  _254
REMARK   98  A    between atoms: _254  and  _255
REMARK   99  A    between atoms: _254  and  _257
REMARK  100  A    between atoms: _257  and  _258
REMARK  101  A    between atoms: _261  and  _263
REMARK  102  A    between atoms: _263  and  _264
REMARK  103  A    between atoms: _263  and  _266
REMARK  104  A    between atoms: _266  and  _267
REMARK  105  A    between atoms: _267  and  _484
REMARK  106  A    between atoms: _268  and  _270
REMARK  107  A    between atoms: _270  and  _271
REMARK  108  A    between atoms: _270  and  _273
REMARK  109  A    between atoms: _273  and  _274
REMARK  110  A    between atoms: _277  and  _279
REMARK  111  A    between atoms: _279  and  _280
REMARK  112  A    between atoms: _279  and  _282
REMARK  113  A    between atoms: _282  and  _283
REMARK  114  A    between atoms: _288  and  _289
REMARK  115  A    between atoms: _291  and  _293
REMARK  116  A    between atoms: _293  and  _294
REMARK  117  A    between atoms: _293  and  _296
REMARK  118  A    between atoms: _296  and  _297
REMARK  119  A    between atoms: _302  and  _303
REMARK  120  A    between atoms: _305  and  _307
REMARK  121  A    between atoms: _307  and  _308
REMARK  122  A    between atoms: _307  and  _310
REMARK  123  A    between atoms: _310  and  _311
REMARK  124  A    between atoms: _311  and  _312
REMARK  125  A    between atoms: _315  and  _317
REMARK  126  A    between atoms: _317  and  _318
REMARK  127  A    between atoms: _317  and  _320
REMARK  128  A    between atoms: _320  and  _321
REMARK  129  A    between atoms: _326  and  _327
REMARK  130  A    between atoms: _329  and  _331
REMARK  131  A    between atoms: _331  and  _332
REMARK  132  A    between atoms: _331  and  _334
REMARK  133  A    between atoms: _334  and  _335
REMARK  134  A    between atoms: _340  and  _342
REMARK  135  A    between atoms: _342  and  _343
REMARK  136  A    between atoms: _342  and  _345
REMARK  137  A    between atoms: _345  and  _346
REMARK  138  A    between atoms: _349  and  _351
REMARK  139  A    between atoms: _351  and  _352
REMARK  140  A    between atoms: _351  and  _354
REMARK  141  A    between atoms: _354  and  _355
REMARK  142  A    between atoms: _360  and  _362
REMARK  143  A    between atoms: _362  and  _363
REMARK  144  A    between atoms: _362  and  _365
REMARK  145  A    between atoms: _365  and  _366
REMARK  146  A    between atoms: _376  and  _378
REMARK  147  A    between atoms: _378  and  _379
REMARK  148  A    between atoms: _378  and  _381
REMARK  149  A    between atoms: _381  and  _382
REMARK  150  A    between atoms: _388  and  _390
REMARK  151  A    between atoms: _390  and  _391
REMARK  152  A    between atoms: _390  and  _393
REMARK  153  A    between atoms: _393  and  _394
REMARK  154  A    between atoms: _397  and  _399
REMARK  155  A    between atoms: _399  and  _400
REMARK  156  A    between atoms: _399  and  _402
REMARK  157  A    between atoms: _402  and  _403
REMARK  158  A    between atoms: _406  and  _408
REMARK  159  A    between atoms: _408  and  _409
REMARK  160  A    between atoms: _408  and  _411
REMARK  161  A    between atoms: _411  and  _412
REMARK  162  A    between atoms: _412  and  _413
REMARK  163  A    between atoms: _413  and  _414
REMARK  164  A    between atoms: _423  and  _425
REMARK  165  A    between atoms: _425  and  _426
REMARK  166  A    between atoms: _425  and  _428
REMARK  167  A    between atoms: _428  and  _429
REMARK  168  A    between atoms: _434  and  _436
REMARK  169  A    between atoms: _436  and  _437
REMARK  170  A    between atoms: _436  and  _439
REMARK  171  A    between atoms: _439  and  _440
REMARK  172  A    between atoms: _441  and  _442
REMARK  173  A    between atoms: _451  and  _453
REMARK  174  A    between atoms: _453  and  _454
REMARK  175  A    between atoms: _457  and  _459
REMARK  176  A    between atoms: _459  and  _460
REMARK  177  A    between atoms: _462  and  _464
REMARK  178  A    between atoms: _464  and  _465
REMARK  179  A    between atoms: _464  and  _467
REMARK  180  A    between atoms: _467  and  _468
REMARK  181  A    between atoms: _478  and  _480
REMARK  182  A    between atoms: _480  and  _481
REMARK  183  A    between atoms: _480  and  _483
REMARK  184  A    between atoms: _483  and  _484
REMARK  185  A    between atoms: _485  and  _487
REMARK  186  A    between atoms: _487  and  _488
REMARK  187  A    between atoms: _491  and  _493
REMARK  188  A    between atoms: _493  and  _494
REMARK  189  A    between atoms: _493  and  _496
REMARK  190  A    between atoms: _496  and  _497
REMARK  191  A    between atoms: _500  and  _502
REMARK  192  A    between atoms: _502  and  _503
REMARK  193  A    between atoms: _502  and  _505
REMARK  194  A    between atoms: _505  and  _506
REMARK  195  A    between atoms: _511  and  _512
REMARK  196  A    between atoms: _514  and  _516
REMARK  197  A    between atoms: _516  and  _517
REMARK  198  A    between atoms: _516  and  _519
REMARK  199  A    between atoms: _519  and  _520
REMARK  200  A    between atoms: _522  and  _524
REMARK  201  A    between atoms: _524  and  _525
REMARK  202  A    between atoms: _524  and  _527
REMARK  203  A    between atoms: _527  and  _528
REMARK  204  A    between atoms: _534  and  _536
REMARK  205  A    between atoms: _536  and  _537
REMARK  206  A    between atoms: _536  and  _539
REMARK  207  A    between atoms: _539  and  _540
REMARK  208  A    between atoms: _543  and  _545
REMARK  209  A    between atoms: _545  and  _546
REMARK  210  A    between atoms: _545  and  _548
REMARK  211  A    between atoms: _548  and  _549
REMARK  212  A    between atoms: _551  and  _553
REMARK  213  A    between atoms: _553  and  _554
REMARK  214  A    between atoms: _553  and  _556
REMARK  215  A    between atoms: _556  and  _557
REMARK  216  A    between atoms: _562  and  _564
REMARK  217  A    between atoms: _564  and  _565
REMARK  218  A    between atoms: _564  and  _567
REMARK  219  A    between atoms: _567  and  _568
REMARK  220  A    between atoms: _571  and  _573
REMARK  221  A    between atoms: _573  and  _574
REMARK  222  A    between atoms: _573  and  _576
REMARK  223  A    between atoms: _576  and  _577
REMARK  224  A    between atoms: _582  and  _583
REMARK  225  A    between atoms: _585  and  _587
REMARK  226  A    between atoms: _587  and  _588
REMARK  227  A    between atoms: _587  and  _590
REMARK  228  A    between atoms: _590  and  _591
REMARK  229  A    between atoms: _596  and  _597
REMARK  230  A    between atoms: _599  and  _601
REMARK  231  A    between atoms: _601  and  _602
REMARK  232  A    between atoms: _601  and  _604
REMARK  233  A    between atoms: _607  and  _609
REMARK  234  A    between atoms: _609  and  _610
REMARK  235  A    between atoms: _609  and  _612
REMARK  236  A    between atoms: _612  and  _613
REMARK  237  A    between atoms: _618  and  _620
REMARK  238  A    between atoms: _620  and  _621
REMARK  239  A    between atoms: _624  and  _626
REMARK  240  A    between atoms: _626  and  _627
REMARK  241  A    between atoms: _626  and  _629
REMARK  242  A    between atoms: _629  and  _630
REMARK  243  A    between atoms: _630  and  _631
REMARK  244  A    between atoms: _631  and  _632
REMARK  245  A    between atoms: _641  and  _643
REMARK  246  A    between atoms: _643  and  _644
REMARK  247  A    between atoms: _643  and  _646
REMARK  248  A    between atoms: _646  and  _647
REMARK  249  A    between atoms: _650  and  _652
REMARK  250  A    between atoms: _652  and  _653
REMARK  251  A    between atoms: _652  and  _655
REMARK  252  A    between atoms: _655  and  _656
REMARK  253  A    between atoms: _659  and  _661
REMARK  254  A    between atoms: _661  and  _662
REMARK  255  A    between atoms: _661  and  _664
REMARK  256  A    between atoms: _664  and  _665
REMARK                            x       y       z     vdW  Elec       q    Type
REMARK                         _______ _______ _______ _____ _____    ______ ____
ROOT
ATOM      1  O   HOH     1       1.680  21.737  18.986  0.00  0.00    +0.000 OA
ENDROOT
TORSDOF 0
REMARK  Name = ../refined-set-2016/1b6h/1b6h_pocket.pdb
REMARK  256 active torsions:
REMARK  status: ('A' for Active; 'I' for Inactive)
REMARK    1  A    between atoms: _1  and  _3
REMARK    2  A    between atoms: _3  and  _4
REMARK    3  A    between atoms: _3  and  _6
REMARK    4  A    between atoms: _6  and  _7
REMARK    5  A    between atoms: _12  and  _14
REMARK    6  A    between atoms: _14  and  _15
REMARK    7  A    between atoms: _17  and  _19
REMARK    8  A    between atoms: _19  and  _20
REMARK    9  A    between atoms: _19  and  _22
REMARK   10  A    between atoms: _22  and  _23
REMARK   11  A    between atoms: _23  and  _24
REMARK   12  A    between atoms: _29  and  _31
REMARK   13  A    between atoms: _31  and  _32
REMARK   14  A    between atoms: _31  and  _34
REMARK   15  A    between atoms: _34  and  _35
REMARK   16  A    between atoms: _38  and  _40
REMARK   17  A    between atoms: _40  and  _41
REMARK   18  A    between atoms: _40  and  _43
REMARK   19  A    between atoms: _43  and  _44
REMARK   20  A    between atoms: _44  and  _45
REMARK   21  A    between atoms: _48  and  _50
REMARK   22  A    between atoms: _50  and  _51
REMARK   23  A    between atoms: _53  and  _55
REMARK   24  A    between atoms: _55  and  _56
REMARK   25  A    between atoms: _55  and  _58
REMARK   26  A    between atoms: _62  and  _63
REMARK   27  A    between atoms: _68  and  _70
REMARK   28  A    between atoms: _70  and  _71
REMARK   29  A    between atoms: _70  and  _73
REMARK   30  A    between atoms: _73  and  _74
REMARK   31  A    between atoms: _74  and  _75
REMARK   32  A    between atoms: _78  and  _80
REMARK   33  A    between atoms: _80  and  _81
REMARK   34  A    between atoms: _80  and  _83
REMARK   35  A    between atoms: _83  and  _84
REMARK   36  A    between atoms: _86  and  _88
REMARK   37  A    between atoms: _88  and  _89
REMARK   38  A    between atoms: _88  and  _91
REMARK   39  A    between atoms: _91  and  _92
REMARK   40  A    between atoms: _97  and  _99
REMARK   41  A    between atoms: _99  and  _100
REMARK   42  A    between atoms: _99  and  _102
REMARK   43  A    between atoms: _102  and  _103
REMARK   44  A    between atoms: _103  and  _104
REMARK   45  A    between atoms: _104  and  _105
REMARK   46  A    between atoms: _115  and  _116
REMARK   47  A    between atoms: _121  and  _123
REMARK   48  A    between atoms: _123  and  _124
REMARK   49  A    between atoms: _123  and  _126
REMARK   50  A    between atoms: _126  and  _127
REMARK   51  A    between atoms: _132  and  _133
REMARK   52  A    between atoms: _135  and  _137
REMARK   53  A    between atoms: _137  and  _138
REMARK   54  A    between atoms: _137  and  _140
REMARK   55  A    between atoms: _140  and  _141
REMARK   56  A    between atoms: _146  and  _147
REMARK   57  A    between atoms: _149  and  _151
REMARK   58  A    between atoms: _151  and  _152
REMARK   59  A    between atoms: _151  and  _154
REMARK   60  A    between atoms: _157  and  _159
REMARK   61  A    between atoms: _159  and  _160
REMARK   62  A    between atoms: _159  and  _162
REMARK   63  A    between atoms: _162  and  _163
REMARK   64  A    between atoms: _169  and  _170
REMARK   65  A    between atoms: _175  and  _177
REMARK   66  A    between atoms: _177  and  _178
REMARK   67  A    between atoms: _177  and  _180
REMARK   68  A    between atoms: _180  and  _181
REMARK   69  A    between atoms: _183  and  _185
REMARK   70  A    between atoms: _185  and  _186
REMARK   71  A    between atoms: _185  and  _188
REMARK   72  A    between atoms: _188  and  _189
REMARK   73  A    between atoms: _189  and  _190
REMARK   74  A    between atoms: _193  and  _195
REMARK   75  A    between atoms: _195  and  _196
REMARK   76  A    between atoms: _195  and  _198
REMARK   77  A    between atoms: _198  and  _199
REMARK   78  A    between atoms: _204  and  _205
REMARK   79  A    between atoms: _207  and  _209
REMARK   80  A    between atoms: _209  and  _210
REMARK   81  A    between atoms: _209  and  _212
REMARK   82  A    between atoms: _212  and  _213
REMARK   83  A    between atoms: _218  and  _220
REMARK   84  A    between atoms: _220  and  _221
REMARK   85  A    between atoms: _220  and  _223
REMARK   86  A    between atoms: _223  and  _224
REMARK   87  A    between atoms: _229  and  _231
REMARK   88  A    between atoms: _231  and  _232
REMARK   89  A    between atoms: _231  and  _234
REMARK   90  A    between atoms: _234  and  _235
REMARK   91  A    between atoms: _235  and  _236
REMARK   92  A    between atoms: _238  and  _240
REMARK   93  A    between atoms: _240  and  _241
REMARK   94  A    between atoms: _240  and  _243
REMARK   95  A    between atoms: _243  and  _244
REMARK   96  A    between atoms: _249  and  _250
REMARK   97  A    between atoms: _252  and  _254
REMARK   98  A    between atoms: _254  and  _255
REMARK   99  A    between atoms: _254  and  _257
REMARK  100  A    between atoms: _257  and  _258
REMARK  101  A    between atoms: _261  and  _263
REMARK  102  A    between atoms: _263  and  _264
REMARK  103  A    between atoms: _263  and  _266
REMARK  104  A    between atoms: _266  and  _267
REMARK  105  A    between atoms: _267  and  _484
REMARK  106  A    between atoms: _268  and  _270
REMARK  107  A    between atoms: _270  and  _271
REMARK  108  A    between atoms: _270  and  _273
REMARK  109  A    between atoms: _273  and  _274
REMARK  110  A    between atoms: _277  and  _279
REMARK  111  A    between atoms: _279  and  _280
REMARK  112  A    between atoms: _279  and  _282
REMARK  113  A    between atoms: _282  and  _283
REMARK  114  A    between atoms: _288  and  _289
REMARK  115  A    between atoms: _291  and  _293
REMARK  116  A    between atoms: _293  and  _294
REMARK  117  A    between atoms: _293  and  _296
REMARK  118  A    between atoms: _296  and  _297
REMARK  119  A    between atoms: _302  and  _303
REMARK  120  A    between atoms: _305  and  _307
REMARK  121  A    between atoms: _307  and  _308
REMARK  122  A    between atoms: _307  and  _310
REMARK  123  A    between atoms: _310  and  _311
REMARK  124  A    between atoms: _311  and  _312
REMARK  125  A    between atoms: _315  and  _317
REMARK  126  A    between atoms: _317  and  _318
REMARK  127  A    between atoms: _317  and  _320
REMARK  128  A    between atoms: _320  and  _321
REMARK  129  A    between atoms: _326  and  _327
REMARK  130  A    between atoms: _329  and  _331
REMARK  131  A    between atoms: _331  and  _332
REMARK  132  A    between atoms: _331  and  _334
REMARK  133  A    between atoms: _334  and  _335
REMARK  134  A    between atoms: _340  and  _342
REMARK  135  A    between atoms: _342  and  _343
REMARK  136  A    between atoms: _342  and  _345
REMARK  137  A    between atoms: _345  and  _346
REMARK  138  A    between atoms: _349  and  _351
REMARK  139  A    between atoms: _351  and  _352
REMARK  140  A    between atoms: _351  and  _354
REMARK  141  A    between atoms: _354  and  _355
REMARK  142  A    between atoms: _360  and  _362
REMARK  143  A    between atoms: _362  and  _363
REMARK  144  A    between atoms: _362  and  _365
REMARK  145  A    between atoms: _365  and  _366
REMARK  146  A    between atoms: _376  and  _378
REMARK  147  A    between atoms: _378  and  _379
REMARK  148  A    between atoms: _378  and  _381
REMARK  149  A    between atoms: _381  and  _382
REMARK  150  A    between atoms: _388  and  _390
REMARK  151  A    between atoms: _390  and  _391
REMARK  152  A    between atoms: _390  and  _393
REMARK  153  A    between atoms: _393  and  _394
REMARK  154  A    between atoms: _397  and  _399
REMARK  155  A    between atoms: _399  and  _400
REMARK  156  A    between atoms: _399  and  _402
REMARK  157  A    between atoms: _402  and  _403
REMARK  158  A    between atoms: _406  and  _408
REMARK  159  A    between atoms: _408  and  _409
REMARK  160  A    between atoms: _408  and  _411
REMARK  161  A    between atoms: _411  and  _412
REMARK  162  A    between atoms: _412  and  _413
REMARK  163  A    between atoms: _413  and  _414
REMARK  164  A    between atoms: _423  and  _425
REMARK  165  A    between atoms: _425  and  _426
REMARK  166  A    between atoms: _425  and  _428
REMARK  167  A    between atoms: _428  and  _429
REMARK  168  A    between atoms: _434  and  _436
REMARK  169  A    between atoms: _436  and  _437
REMARK  170  A    between atoms: _436  and  _439
REMARK  171  A    between atoms: _439  and  _440
REMARK  172  A    between atoms: _441  and  _442
REMARK  173  A    between atoms: _451  and  _453
REMARK  174  A    between atoms: _453  and  _454
REMARK  175  A    between atoms: _457  and  _459
REMARK  176  A    between atoms: _459  and  _460
REMARK  177  A    between atoms: _462  and  _464
REMARK  178  A    between atoms: _464  and  _465
REMARK  179  A    between atoms: _464  and  _467
REMARK  180  A    between atoms: _467  and  _468
REMARK  181  A    between atoms: _478  and  _480
REMARK  182  A    between atoms: _480  and  _481
REMARK  183  A    between atoms: _480  and  _483
REMARK  184  A    between atoms: _483  and  _484
REMARK  185  A    between atoms: _485  and  _487
REMARK  186  A    between atoms: _487  and  _488
REMARK  187  A    between atoms: _491  and  _493
REMARK  188  A    between atoms: _493  and  _494
REMARK  189  A    between atoms: _493  and  _496
REMARK  190  A    between atoms: _496  and  _497
REMARK  191  A    between atoms: _500  and  _502
REMARK  192  A    between atoms: _502  and  _503
REMARK  193  A    between atoms: _502  and  _505
REMARK  194  A    between atoms: _505  and  _506
REMARK  195  A    between atoms: _511  and  _512
REMARK  196  A    between atoms: _514  and  _516
REMARK  197  A    between atoms: _516  and  _517
REMARK  198  A    between atoms: _516  and  _519
REMARK  199  A    between atoms: _519  and  _520
REMARK  200  A    between atoms: _522  and  _524
REMARK  201  A    between atoms: _524  and  _525
REMARK  202  A    between atoms: _524  and  _527
REMARK  203  A    between atoms: _527  and  _528
REMARK  204  A    between atoms: _534  and  _536
REMARK  205  A    between atoms: _536  and  _537
REMARK  206  A    between atoms: _536  and  _539
REMARK  207  A    between atoms: _539  and  _540
REMARK  208  A    between atoms: _543  and  _545
REMARK  209  A    between atoms: _545  and  _546
REMARK  210  A    between atoms: _545  and  _548
REMARK  211  A    between atoms: _548  and  _549
REMARK  212  A    between atoms: _551  and  _553
REMARK  213  A    between atoms: _553  and  _554
REMARK  214  A    between atoms: _553  and  _556
REMARK  215  A    between atoms: _556  and  _557
REMARK  216  A    between atoms: _562  and  _564
REMARK  217  A    between atoms: _564  and  _565
REMARK  218  A    between atoms: _564  and  _567
REMARK  219  A    between atoms: _567  and  _568
REMARK  220  A    between atoms: _571  and  _573
REMARK  221  A    between atoms: _573  and  _574
REMARK  222  A    between atoms: _573  and  _576
REMARK  223  A    between atoms: _576  and  _577
REMARK  224  A    between atoms: _582  and  _583
REMARK  225  A    between atoms: _585  and  _587
REMARK  226  A    between atoms: _587  and  _588
REMARK  227  A    between atoms: _587  and  _590
REMARK  228  A    between atoms: _590  and  _591
REMARK  229  A    between atoms: _596  and  _597
REMARK  230  A    between atoms: _599  and  _601
REMARK  231  A    between atoms: _601  and  _602
REMARK  232  A    between atoms: _601  and  _604
REMARK  233  A    between atoms: _607  and  _609
REMARK  234  A    between atoms: _609  and  _610
REMARK  235  A    between atoms: _609  and  _612
REMARK  236  A    between atoms: _612  and  _613
REMARK  237  A    between atoms: _618  and  _620
REMARK  238  A    between atoms: _620  and  _621
REMARK  239  A    between atoms: _624  and  _626
REMARK  240  A    between atoms: _626  and  _627
REMARK  241  A    between atoms: _626  and  _629
REMARK  242  A    between atoms: _629  and  _630
REMARK  243  A    between atoms: _630  and  _631
REMARK  244  A    between atoms: _631  and  _632
REMARK  245  A    between atoms: _641  and  _643
REMARK  246  A    between atoms: _643  and  _644
REMARK  247  A    between atoms: _643  and  _646
REMARK  248  A    between atoms: _646  and  _647
REMARK  249  A    between atoms: _650  and  _652
REMARK  250  A    between atoms: _652  and  _653
REMARK  251  A    between atoms: _652  and  _655
REMARK  252  A    between atoms: _655  and  _656
REMARK  253  A    between atoms: _659  and  _661
REMARK  254  A    between atoms: _661  and  _662
REMARK  255  A    between atoms: _661  and  _664
REMARK  256  A    between atoms: _664  and  _665
REMARK                            x       y       z     vdW  Elec       q    Type
REMARK                         _______ _______ _______ _____ _____    ______ ____
ROOT
ATOM      1  O   HOH     1      -3.993  22.714  14.980  0.00  0.00    +0.000 OA
ENDROOT
TORSDOF 0
REMARK  Name = ../refined-set-2016/1b6h/1b6h_pocket.pdb
REMARK  256 active torsions:
REMARK  status: ('A' for Active; 'I' for Inactive)
REMARK    1  A    between atoms: _1  and  _3
REMARK    2  A    between atoms: _3  and  _4
REMARK    3  A    between atoms: _3  and  _6
REMARK    4  A    between atoms: _6  and  _7
REMARK    5  A    between atoms: _12  and  _14
REMARK    6  A    between atoms: _14  and  _15
REMARK    7  A    between atoms: _17  and  _19
REMARK    8  A    between atoms: _19  and  _20
REMARK    9  A    between atoms: _19  and  _22
REMARK   10  A    between atoms: _22  and  _23
REMARK   11  A    between atoms: _23  and  _24
REMARK   12  A    between atoms: _29  and  _31
REMARK   13  A    between atoms: _31  and  _32
REMARK   14  A    between atoms: _31  and  _34
REMARK   15  A    between atoms: _34  and  _35
REMARK   16  A    between atoms: _38  and  _40
REMARK   17  A    between atoms: _40  and  _41
REMARK   18  A    between atoms: _40  and  _43
REMARK   19  A    between atoms: _43  and  _44
REMARK   20  A    between atoms: _44  and  _45
REMARK   21  A    between atoms: _48  and  _50
REMARK   22  A    between atoms: _50  and  _51
REMARK   23  A    between atoms: _53  and  _55
REMARK   24  A    between atoms: _55  and  _56
REMARK   25  A    between atoms: _55  and  _58
REMARK   26  A    between atoms: _62  and  _63
REMARK   27  A    between atoms: _68  and  _70
REMARK   28  A    between atoms: _70  and  _71
REMARK   29  A    between atoms: _70  and  _73
REMARK   30  A    between atoms: _73  and  _74
REMARK   31  A    between atoms: _74  and  _75
REMARK   32  A    between atoms: _78  and  _80
REMARK   33  A    between atoms: _80  and  _81
REMARK   34  A    between atoms: _80  and  _83
REMARK   35  A    between atoms: _83  and  _84
REMARK   36  A    between atoms: _86  and  _88
REMARK   37  A    between atoms: _88  and  _89
REMARK   38  A    between atoms: _88  and  _91
REMARK   39  A    between atoms: _91  and  _92
REMARK   40  A    between atoms: _97  and  _99
REMARK   41  A    between atoms: _99  and  _100
REMARK   42  A    between atoms: _99  and  _102
REMARK   43  A    between atoms: _102  and  _103
REMARK   44  A    between atoms: _103  and  _104
REMARK   45  A    between atoms: _104  and  _105
REMARK   46  A    between atoms: _115  and  _116
REMARK   47  A    between atoms: _121  and  _123
REMARK   48  A    between atoms: _123  and  _124
REMARK   49  A    between atoms: _123  and  _126
REMARK   50  A    between atoms: _126  and  _127
REMARK   51  A    between atoms: _132  and  _133
REMARK   52  A    between atoms: _135  and  _137
REMARK   53  A    between atoms: _137  and  _138
REMARK   54  A    between atoms: _137  and  _140
REMARK   55  A    between atoms: _140  and  _141
REMARK   56  A    between atoms: _146  and  _147
REMARK   57  A    between atoms: _149  and  _151
REMARK   58  A    between atoms: _151  and  _152
REMARK   59  A    between atoms: _151  and  _154
REMARK   60  A    between atoms: _157  and  _159
REMARK   61  A    between atoms: _159  and  _160
REMARK   62  A    between atoms: _159  and  _162
REMARK   63  A    between atoms: _162  and  _163
REMARK   64  A    between atoms: _169  and  _170
REMARK   65  A    between atoms: _175  and  _177
REMARK   66  A    between atoms: _177  and  _178
REMARK   67  A    between atoms: _177  and  _180
REMARK   68  A    between atoms: _180  and  _181
REMARK   69  A    between atoms: _183  and  _185
REMARK   70  A    between atoms: _185  and  _186
REMARK   71  A    between atoms: _185  and  _188
REMARK   72  A    between atoms: _188  and  _189
REMARK   73  A    between atoms: _189  and  _190
REMARK   74  A    between atoms: _193  and  _195
REMARK   75  A    between atoms: _195  and  _196
REMARK   76  A    between atoms: _195  and  _198
REMARK   77  A    between atoms: _198  and  _199
REMARK   78  A    between atoms: _204  and  _205
REMARK   79  A    between atoms: _207  and  _209
REMARK   80  A    between atoms: _209  and  _210
REMARK   81  A    between atoms: _209  and  _212
REMARK   82  A    between atoms: _212  and  _213
REMARK   83  A    between atoms: _218  and  _220
REMARK   84  A    between atoms: _220  and  _221
REMARK   85  A    between atoms: _220  and  _223
REMARK   86  A    between atoms: _223  and  _224
REMARK   87  A    between atoms: _229  and  _231
REMARK   88  A    between atoms: _231  and  _232
REMARK   89  A    between atoms: _231  and  _234
REMARK   90  A    between atoms: _234  and  _235
REMARK   91  A    between atoms: _235  and  _236
REMARK   92  A    between atoms: _238  and  _240
REMARK   93  A    between atoms: _240  and  _241
REMARK   94  A    between atoms: _240  and  _243
REMARK   95  A    between atoms: _243  and  _244
REMARK   96  A    between atoms: _249  and  _250
REMARK   97  A    between atoms: _252  and  _254
REMARK   98  A    between atoms: _254  and  _255
REMARK   99  A    between atoms: _254  and  _257
REMARK  100  A    between atoms: _257  and  _258
REMARK  101  A    between atoms: _261  and  _263
REMARK  102  A    between atoms: _263  and  _264
REMARK  103  A    between atoms: _263  and  _266
REMARK  104  A    between atoms: _266  and  _267
REMARK  105  A    between atoms: _267  and  _484
REMARK  106  A    between atoms: _268  and  _270
REMARK  107  A    between atoms: _270  and  _271
REMARK  108  A    between atoms: _270  and  _273
REMARK  109  A    between atoms: _273  and  _274
REMARK  110  A    between atoms: _277  and  _279
REMARK  111  A    between atoms: _279  and  _280
REMARK  112  A    between atoms: _279  and  _282
REMARK  113  A    between atoms: _282  and  _283
REMARK  114  A    between atoms: _288  and  _289
REMARK  115  A    between atoms: _291  and  _293
REMARK  116  A    between atoms: _293  and  _294
REMARK  117  A    between atoms: _293  and  _296
REMARK  118  A    between atoms: _296  and  _297
REMARK  119  A    between atoms: _302  and  _303
REMARK  120  A    between atoms: _305  and  _307
REMARK  121  A    between atoms: _307  and  _308
REMARK  122  A    between atoms: _307  and  _310
REMARK  123  A    between atoms: _310  and  _311
REMARK  124  A    between atoms: _311  and  _312
REMARK  125  A    between atoms: _315  and  _317
REMARK  126  A    between atoms: _317  and  _318
REMARK  127  A    between atoms: _317  and  _320
REMARK  128  A    between atoms: _320  and  _321
REMARK  129  A    between atoms: _326  and  _327
REMARK  130  A    between atoms: _329  and  _331
REMARK  131  A    between atoms: _331  and  _332
REMARK  132  A    between atoms: _331  and  _334
REMARK  133  A    between atoms: _334  and  _335
REMARK  134  A    between atoms: _340  and  _342
REMARK  135  A    between atoms: _342  and  _343
REMARK  136  A    between atoms: _342  and  _345
REMARK  137  A    between atoms: _345  and  _346
REMARK  138  A    between atoms: _349  and  _351
REMARK  139  A    between atoms: _351  and  _352
REMARK  140  A    between atoms: _351  and  _354
REMARK  141  A    between atoms: _354  and  _355
REMARK  142  A    between atoms: _360  and  _362
REMARK  143  A    between atoms: _362  and  _363
REMARK  144  A    between atoms: _362  and  _365
REMARK  145  A    between atoms: _365  and  _366
REMARK  146  A    between atoms: _376  and  _378
REMARK  147  A    between atoms: _378  and  _379
REMARK  148  A    between atoms: _378  and  _381
REMARK  149  A    between atoms: _381  and  _382
REMARK  150  A    between atoms: _388  and  _390
REMARK  151  A    between atoms: _390  and  _391
REMARK  152  A    between atoms: _390  and  _393
REMARK  153  A    between atoms: _393  and  _394
REMARK  154  A    between atoms: _397  and  _399
REMARK  155  A    between atoms: _399  and  _400
REMARK  156  A    between atoms: _399  and  _402
REMARK  157  A    between atoms: _402  and  _403
REMARK  158  A    between atoms: _406  and  _408
REMARK  159  A    between atoms: _408  and  _409
REMARK  160  A    between atoms: _408  and  _411
REMARK  161  A    between atoms: _411  and  _412
REMARK  162  A    between atoms: _412  and  _413
REMARK  163  A    between atoms: _413  and  _414
REMARK  164  A    between atoms: _423  and  _425
REMARK  165  A    between atoms: _425  and  _426
REMARK  166  A    between atoms: _425  and  _428
REMARK  167  A    between atoms: _428  and  _429
REMARK  168  A    between atoms: _434  and  _436
REMARK  169  A    between atoms: _436  and  _437
REMARK  170  A    between atoms: _436  and  _439
REMARK  171  A    between atoms: _439  and  _440
REMARK  172  A    between atoms: _441  and  _442
REMARK  173  A    between atoms: _451  and  _453
REMARK  174  A    between atoms: _453  and  _454
REMARK  175  A    between atoms: _457  and  _459
REMARK  176  A    between atoms: _459  and  _460
REMARK  177  A    between atoms: _462  and  _464
REMARK  178  A    between atoms: _464  and  _465
REMARK  179  A    between atoms: _464  and  _467
REMARK  180  A    between atoms: _467  and  _468
REMARK  181  A    between atoms: _478  and  _480
REMARK  182  A    between atoms: _480  and  _481
REMARK  183  A    between atoms: _480  and  _483
REMARK  184  A    between atoms: _483  and  _484
REMARK  185  A    between atoms: _485  and  _487
REMARK  186  A    between atoms: _487  and  _488
REMARK  187  A    between atoms: _491  and  _493
REMARK  188  A    between atoms: _493  and  _494
REMARK  189  A    between atoms: _493  and  _496
REMARK  190  A    between atoms: _496  and  _497
REMARK  191  A    between atoms: _500  and  _502
REMARK  192  A    between atoms: _502  and  _503
REMARK  193  A    between atoms: _502  and  _505
REMARK  194  A    between atoms: _505  and  _506
REMARK  195  A    between atoms: _511  and  _512
REMARK  196  A    between atoms: _514  and  _516
REMARK  197  A    between atoms: _516  and  _517
REMARK  198  A    between atoms: _516  and  _519
REMARK  199  A    between atoms: _519  and  _520
REMARK  200  A    between atoms: _522  and  _524
REMARK  201  A    between atoms: _524  and  _525
REMARK  202  A    between atoms: _524  and  _527
REMARK  203  A    between atoms: _527  and  _528
REMARK  204  A    between atoms: _534  and  _536
REMARK  205  A    between atoms: _536  and  _537
REMARK  206  A    between atoms: _536  and  _539
REMARK  207  A    between atoms: _539  and  _540
REMARK  208  A    between atoms: _543  and  _545
REMARK  209  A    between atoms: _545  and  _546
REMARK  210  A    between atoms: _545  and  _548
REMARK  211  A    between atoms: _548  and  _549
REMARK  212  A    between atoms: _551  and  _553
REMARK  213  A    between atoms: _553  and  _554
REMARK  214  A    between atoms: _553  and  _556
REMARK  215  A    between atoms: _556  and  _557
REMARK  216  A    between atoms: _562  and  _564
REMARK  217  A    between atoms: _564  and  _565
REMARK  218  A    between atoms: _564  and  _567
REMARK  219  A    between atoms: _567  and  _568
REMARK  220  A    between atoms: _571  and  _573
REMARK  221  A    between atoms: _573  and  _574
REMARK  222  A    between atoms: _573  and  _576
REMARK  223  A    between atoms: _576  and  _577
REMARK  224  A    between atoms: _582  and  _583
REMARK  225  A    between atoms: _585  and  _587
REMARK  226  A    between atoms: _587  and  _588
REMARK  227  A    between atoms: _587  and  _590
REMARK  228  A    between atoms: _590  and  _591
REMARK  229  A    between atoms: _596  and  _597
REMARK  230  A    between atoms: _599  and  _601
REMARK  231  A    between atoms: _601  and  _602
REMARK  232  A    between atoms: _601  and  _604
REMARK  233  A    between atoms: _607  and  _609
REMARK  234  A    between atoms: _609  and  _610
REMARK  235  A    between atoms: _609  and  _612
REMARK  236  A    between atoms: _612  and  _613
REMARK  237  A    between atoms: _618  and  _620
REMARK  238  A    between atoms: _620  and  _621
REMARK  239  A    between atoms: _624  and  _626
REMARK  240  A    between atoms: _626  and  _627
REMARK  241  A    between atoms: _626  and  _629
REMARK  242  A    between atoms: _629  and  _630
REMARK  243  A    between atoms: _630  and  _631
REMARK  244  A    between atoms: _631  and  _632
REMARK  245  A    between atoms: _641  and  _643
REMARK  246  A    between atoms: _643  and  _644
REMARK  247  A    between atoms: _643  and  _646
REMARK  248  A    between atoms: _646  and  _647
REMARK  249  A    between atoms: _650  and  _652
REMARK  250  A    between atoms: _652  and  _653
REMARK  251  A    between atoms: _652  and  _655
REMARK  252  A    between atoms: _655  and  _656
REMARK  253  A    between atoms: _659  and  _661
REMARK  254  A    between atoms: _661  and  _662
REMARK  255  A    between atoms: _661  and  _664
REMARK  256  A    between atoms: _664  and  _665
REMARK                            x       y       z     vdW  Elec       q    Type
REMARK                         _______ _______ _______ _____ _____    ______ ____
ROOT
ATOM      1  O   HOH     1       8.504  12.886   9.669  0.00  0.00    +0.000 OA
ENDROOT
TORSDOF 0
