REMARK  Name = ../refined-set-2016/1tjp/1tjp_pocket.pdb
REMARK  206 active torsions:
REMARK  status: ('A' for Active; 'I' for Inactive)
REMARK    1  A    between atoms: _1  and  _3
REMARK    2  A    between atoms: _3  and  _4
REMARK    3  A    between atoms: _3  and  _6
REMARK    4  A    between atoms: _10  and  _11
REMARK    5  A    between atoms: _16  and  _18
REMARK    6  A    between atoms: _18  and  _19
REMARK    7  A    between atoms: _18  and  _21
REMARK    8  A    between atoms: _21  and  _22
REMARK    9  A    between atoms: _28  and  _30
REMARK   10  A    between atoms: _30  and  _31
REMARK   11  A    between atoms: _30  and  _33
REMARK   12  A    between atoms: _36  and  _38
REMARK   13  A    between atoms: _38  and  _39
REMARK   14  A    between atoms: _38  and  _41
REMARK   15  A    between atoms: _41  and  _42
REMARK   16  A    between atoms: _45  and  _47
REMARK   17  A    between atoms: _47  and  _48
REMARK   18  A    between atoms: _47  and  _50
REMARK   19  A    between atoms: _50  and  _51
REMARK   20  A    between atoms: _51  and  _52
REMARK   21  A    between atoms: _55  and  _57
REMARK   22  A    between atoms: _57  and  _58
REMARK   23  A    between atoms: _57  and  _60
REMARK   24  A    between atoms: _60  and  _61
REMARK   25  A    between atoms: _64  and  _66
REMARK   26  A    between atoms: _66  and  _67
REMARK   27  A    between atoms: _70  and  _71
REMARK   28  A    between atoms: _76  and  _78
REMARK   29  A    between atoms: _78  and  _79
REMARK   30  A    between atoms: _78  and  _81
REMARK   31  A    between atoms: _81  and  _82
REMARK   32  A    between atoms: _85  and  _87
REMARK   33  A    between atoms: _87  and  _88
REMARK   34  A    between atoms: _91  and  _93
REMARK   35  A    between atoms: _93  and  _94
REMARK   36  A    between atoms: _93  and  _96
REMARK   37  A    between atoms: _96  and  _97
REMARK   38  A    between atoms: _100  and  _102
REMARK   39  A    between atoms: _102  and  _103
REMARK   40  A    between atoms: _105  and  _107
REMARK   41  A    between atoms: _107  and  _108
REMARK   42  A    between atoms: _107  and  _110
REMARK   43  A    between atoms: _110  and  _111
REMARK   44  A    between atoms: _114  and  _116
REMARK   45  A    between atoms: _116  and  _117
REMARK   46  A    between atoms: _116  and  _119
REMARK   47  A    between atoms: _119  and  _120
REMARK   48  A    between atoms: _123  and  _125
REMARK   49  A    between atoms: _125  and  _126
REMARK   50  A    between atoms: _125  and  _128
REMARK   51  A    between atoms: _128  and  _129
REMARK   52  A    between atoms: _129  and  _130
REMARK   53  A    between atoms: _135  and  _137
REMARK   54  A    between atoms: _137  and  _138
REMARK   55  A    between atoms: _137  and  _140
REMARK   56  A    between atoms: _140  and  _141
REMARK   57  A    between atoms: _146  and  _148
REMARK   58  A    between atoms: _148  and  _149
REMARK   59  A    between atoms: _148  and  _151
REMARK   60  A    between atoms: _151  and  _152
REMARK   61  A    between atoms: _155  and  _157
REMARK   62  A    between atoms: _157  and  _158
REMARK   63  A    between atoms: _157  and  _160
REMARK   64  A    between atoms: _160  and  _161
REMARK   65  A    between atoms: _164  and  _166
REMARK   66  A    between atoms: _166  and  _167
REMARK   67  A    between atoms: _166  and  _169
REMARK   68  A    between atoms: _169  and  _170
REMARK   69  A    between atoms: _170  and  _171
REMARK   70  A    between atoms: _173  and  _175
REMARK   71  A    between atoms: _175  and  _176
REMARK   72  A    between atoms: _175  and  _178
REMARK   73  A    between atoms: _178  and  _179
REMARK   74  A    between atoms: _184  and  _185
REMARK   75  A    between atoms: _187  and  _189
REMARK   76  A    between atoms: _189  and  _190
REMARK   77  A    between atoms: _189  and  _192
REMARK   78  A    between atoms: _192  and  _193
REMARK   79  A    between atoms: _196  and  _198
REMARK   80  A    between atoms: _198  and  _199
REMARK   81  A    between atoms: _198  and  _201
REMARK   82  A    between atoms: _204  and  _206
REMARK   83  A    between atoms: _206  and  _207
REMARK   84  A    between atoms: _210  and  _212
REMARK   85  A    between atoms: _212  and  _213
REMARK   86  A    between atoms: _212  and  _215
REMARK   87  A    between atoms: _215  and  _216
REMARK   88  A    between atoms: _219  and  _221
REMARK   89  A    between atoms: _221  and  _222
REMARK   90  A    between atoms: _221  and  _224
REMARK   91  A    between atoms: _224  and  _225
REMARK   92  A    between atoms: _228  and  _230
REMARK   93  A    between atoms: _230  and  _231
REMARK   94  A    between atoms: _230  and  _233
REMARK   95  A    between atoms: _233  and  _234
REMARK   96  A    between atoms: _239  and  _240
REMARK   97  A    between atoms: _242  and  _244
REMARK   98  A    between atoms: _244  and  _245
REMARK   99  A    between atoms: _244  and  _247
REMARK  100  A    between atoms: _247  and  _248
REMARK  101  A    between atoms: _253  and  _254
REMARK  102  A    between atoms: _256  and  _258
REMARK  103  A    between atoms: _258  and  _259
REMARK  104  A    between atoms: _258  and  _261
REMARK  105  A    between atoms: _261  and  _262
REMARK  106  A    between atoms: _265  and  _267
REMARK  107  A    between atoms: _267  and  _268
REMARK  108  A    between atoms: _267  and  _270
REMARK  109  A    between atoms: _270  and  _271
REMARK  110  A    between atoms: _273  and  _275
REMARK  111  A    between atoms: _275  and  _276
REMARK  112  A    between atoms: _275  and  _278
REMARK  113  A    between atoms: _278  and  _279
REMARK  114  A    between atoms: _279  and  _280
REMARK  115  A    between atoms: _280  and  _281
REMARK  116  A    between atoms: _290  and  _292
REMARK  117  A    between atoms: _292  and  _293
REMARK  118  A    between atoms: _295  and  _297
REMARK  119  A    between atoms: _297  and  _298
REMARK  120  A    between atoms: _297  and  _300
REMARK  121  A    between atoms: _303  and  _305
REMARK  122  A    between atoms: _305  and  _306
REMARK  123  A    between atoms: _305  and  _308
REMARK  124  A    between atoms: _308  and  _309
REMARK  125  A    between atoms: _312  and  _314
REMARK  126  A    between atoms: _314  and  _315
REMARK  127  A    between atoms: _317  and  _319
REMARK  128  A    between atoms: _319  and  _320
REMARK  129  A    between atoms: _323  and  _325
REMARK  130  A    between atoms: _325  and  _326
REMARK  131  A    between atoms: _325  and  _328
REMARK  132  A    between atoms: _328  and  _329
REMARK  133  A    between atoms: _329  and  _330
REMARK  134  A    between atoms: _333  and  _335
REMARK  135  A    between atoms: _335  and  _336
REMARK  136  A    between atoms: _335  and  _338
REMARK  137  A    between atoms: _338  and  _339
REMARK  138  A    between atoms: _344  and  _346
REMARK  139  A    between atoms: _346  and  _347
REMARK  140  A    between atoms: _346  and  _349
REMARK  141  A    between atoms: _349  and  _350
REMARK  142  A    between atoms: _350  and  _351
REMARK  143  A    between atoms: _351  and  _352
REMARK  144  A    between atoms: _361  and  _363
REMARK  145  A    between atoms: _363  and  _364
REMARK  146  A    between atoms: _366  and  _368
REMARK  147  A    between atoms: _368  and  _369
REMARK  148  A    between atoms: _368  and  _371
REMARK  149  A    between atoms: _371  and  _372
REMARK  150  A    between atoms: _375  and  _377
REMARK  151  A    between atoms: _377  and  _378
REMARK  152  A    between atoms: _377  and  _380
REMARK  153  A    between atoms: _380  and  _381
REMARK  154  A    between atoms: _381  and  _382
REMARK  155  A    between atoms: _387  and  _389
REMARK  156  A    between atoms: _389  and  _390
REMARK  157  A    between atoms: _392  and  _394
REMARK  158  A    between atoms: _394  and  _395
REMARK  159  A    between atoms: _394  and  _397
REMARK  160  A    between atoms: _397  and  _398
REMARK  161  A    between atoms: _404  and  _406
REMARK  162  A    between atoms: _406  and  _407
REMARK  163  A    between atoms: _409  and  _411
REMARK  164  A    between atoms: _411  and  _412
REMARK  165  A    between atoms: _411  and  _414
REMARK  166  A    between atoms: _414  and  _415
REMARK  167  A    between atoms: _418  and  _420
REMARK  168  A    between atoms: _420  and  _421
REMARK  169  A    between atoms: _420  and  _423
REMARK  170  A    between atoms: _423  and  _424
REMARK  171  A    between atoms: _426  and  _428
REMARK  172  A    between atoms: _428  and  _429
REMARK  173  A    between atoms: _428  and  _431
REMARK  174  A    between atoms: _431  and  _432
REMARK  175  A    between atoms: _432  and  _433
REMARK  176  A    between atoms: _438  and  _440
REMARK  177  A    between atoms: _440  and  _441
REMARK  178  A    between atoms: _440  and  _443
REMARK  179  A    between atoms: _443  and  _444
REMARK  180  A    between atoms: _447  and  _449
REMARK  181  A    between atoms: _449  and  _450
REMARK  182  A    between atoms: _449  and  _452
REMARK  183  A    between atoms: _452  and  _453
REMARK  184  A    between atoms: _455  and  _457
REMARK  185  A    between atoms: _457  and  _458
REMARK  186  A    between atoms: _460  and  _462
REMARK  187  A    between atoms: _462  and  _463
REMARK  188  A    between atoms: _462  and  _465
REMARK  189  A    between atoms: _465  and  _466
REMARK  190  A    between atoms: _468  and  _470
REMARK  191  A    between atoms: _470  and  _471
REMARK  192  A    between atoms: _474  and  _476
REMARK  193  A    between atoms: _476  and  _477
REMARK  194  A    between atoms: _476  and  _479
REMARK  195  A    between atoms: _479  and  _480
REMARK  196  A    between atoms: _483  and  _485
REMARK  197  A    between atoms: _485  and  _486
REMARK  198  A    between atoms: _485  and  _488
REMARK  199  A    between atoms: _491  and  _493
REMARK  200  A    between atoms: _493  and  _494
REMARK  201  A    between atoms: _493  and  _496
REMARK  202  A    between atoms: _496  and  _497
REMARK  203  A    between atoms: _497  and  _498
REMARK  204  A    between atoms: _498  and  _499
REMARK  205  A    between atoms: _499  and  _500
REMARK  206  A    between atoms: _505  and  _506
REMARK                            x       y       z     vdW  Elec       q    Type
REMARK                         _______ _______ _______ _____ _____    ______ ____
ROOT
ATOM      1  CA  PHE A   3      46.544  32.899  16.945  0.00  0.00    +0.153 C 
ENDROOT
BRANCH   1   4
ATOM      2  C   PRO A   2      44.157  33.292  16.926  0.00  0.00    +0.241 C 
ATOM      3  O   PRO A   2      44.006  32.978  18.116  0.00  0.00    -0.273 OA
ATOM      4  N   PHE A   3      45.314  33.289  16.276  0.00  0.00    -0.297 N 
ATOM      5  H   PHE A   3      45.341  33.569  15.275  0.00  0.00    +0.150 HD
BRANCH   2  11
ATOM      6  C   VAL A   1      41.284  32.089  16.243  0.00  0.00    +0.241 C 
ATOM      7  N   PRO A   2      41.724  33.281  16.598  0.00  0.00    -0.272 N 
ATOM      8  CD  PRO A   2      40.953  34.275  17.368  0.00  0.00    +0.094 C 
ATOM      9  CG  PRO A   2      41.944  35.428  17.500  0.00  0.00    +0.024 C 
ATOM     10  CB  PRO A   2      42.789  35.346  16.292  0.00  0.00    +0.031 C 
ATOM     11  CA  PRO A   2      42.977  33.820  16.100  0.00  0.00    +0.152 C 
ATOM     12  O   VAL A   1      41.886  31.423  15.388  0.00  0.00    -0.273 OA
BRANCH   6  13
ATOM     13  CA  VAL A   1      39.979  31.585  16.844  0.00  0.00    +0.145 C 
BRANCH  13  14
ATOM     14  CB  VAL A   1      40.262  30.141  17.331  0.00  0.00    +0.025 C 
ATOM     15  CG2 VAL A   1      41.353  30.144  18.432  0.00  0.00    +0.002 C 
ATOM     16  CG1 VAL A   1      38.992  29.505  17.841  0.00  0.00    +0.002 C 
ENDBRANCH  13  14
BRANCH  13  17
ATOM     17  N   VAL A   1      38.922  31.518  15.820  0.00  0.00    -0.238 NA
ATOM     18  H   VAL A   1      39.097  31.051  14.908  0.00  0.00    +0.142 HD
ENDBRANCH  13  17
ENDBRANCH   6  13
ENDBRANCH   2  11
ENDBRANCH   1   4
BRANCH   1  19
ATOM     19  C   PHE A   3      47.572  34.008  16.808  0.00  0.00    +0.241 C 
ATOM     20  N   VAL A   4      48.232  34.270  17.925  0.00  0.00    -0.297 N 
ATOM     21  H   VAL A   4      47.938  33.815  18.813  0.00  0.00    +0.150 HD
ATOM     22  O   PHE A   3      47.685  34.637  15.753  0.00  0.00    -0.273 OA
BRANCH  20  23
ATOM     23  CA  VAL A   4      49.373  35.194  17.929  0.00  0.00    +0.149 C 
BRANCH  23  24
ATOM     24  C   VAL A   4      50.459  34.649  18.832  0.00  0.00    +0.241 C 
ATOM     25  O   VAL A   4      50.206  33.789  19.716  0.00  0.00    -0.273 OA
ATOM     26  N   THR A   5      51.685  35.132  18.615  0.00  0.00    -0.296 N 
ATOM     27  H   THR A   5      51.842  35.745  17.790  0.00  0.00    +0.150 HD
BRANCH  26  28
ATOM     28  CA  THR A   5      52.803  34.834  19.485  0.00  0.00    +0.164 C 
BRANCH  28  29
ATOM     29  C   THR A   5      52.808  35.828  20.640  0.00  0.00    +0.229 C 
ATOM     30  O   THR A   5      52.740  37.071  20.456  0.00  0.00    -0.286 OA
ENDBRANCH  28  29
BRANCH  28  31
ATOM     31  CB  THR A   5      54.152  34.901  18.736  0.00  0.00    +0.136 C 
ATOM     32  CG2 THR A   5      55.313  34.740  19.683  0.00  0.00    +0.034 C 
BRANCH  31  33
ATOM     33  OG1 THR A   5      54.161  33.913  17.681  0.00  0.00    -0.382 OA
ATOM     34  HG1 THR A   5      54.043  33.012  18.073  0.00  0.00    +0.210 HD
ENDBRANCH  31  33
ENDBRANCH  28  31
ENDBRANCH  26  28
ENDBRANCH  23  24
BRANCH  23  35
ATOM     35  CB  VAL A   4      49.047  36.676  18.434  0.00  0.00    +0.027 C 
ATOM     36  CG2 VAL A   4      48.589  36.653  19.888  0.00  0.00    +0.002 C 
ATOM     37  CG1 VAL A   4      48.089  37.372  17.458  0.00  0.00    +0.002 C 
ENDBRANCH  23  35
ENDBRANCH  20  23
ENDBRANCH   1  19
BRANCH   1  38
ATOM     38  CB  PHE A   3      47.139  31.613  16.349  0.00  0.00    +0.055 C 
BRANCH  38  39
ATOM     39  CG  PHE A   3      48.611  31.421  16.666  0.00  0.00    -0.020 A 
ATOM     40  CD2 PHE A   3      49.008  30.596  17.711  0.00  0.00    -0.004 A 
ATOM     41  CE2 PHE A   3      50.357  30.460  18.049  0.00  0.00    -0.000 A 
ATOM     42  CZ  PHE A   3      51.328  31.156  17.337  0.00  0.00    -0.000 A 
ATOM     43  CE1 PHE A   3      50.947  31.985  16.285  0.00  0.00    -0.000 A 
ATOM     44  CD1 PHE A   3      49.594  32.113  15.955  0.00  0.00    -0.004 A 
ENDBRANCH  38  39
ENDBRANCH   1  38
TORSDOF 15
REMARK  Name = ../refined-set-2016/1tjp/1tjp_pocket.pdb
REMARK  206 active torsions:
REMARK  status: ('A' for Active; 'I' for Inactive)
REMARK    1  A    between atoms: _1  and  _3
REMARK    2  A    between atoms: _3  and  _4
REMARK    3  A    between atoms: _3  and  _6
REMARK    4  A    between atoms: _10  and  _11
REMARK    5  A    between atoms: _16  and  _18
REMARK    6  A    between atoms: _18  and  _19
REMARK    7  A    between atoms: _18  and  _21
REMARK    8  A    between atoms: _21  and  _22
REMARK    9  A    between atoms: _28  and  _30
REMARK   10  A    between atoms: _30  and  _31
REMARK   11  A    between atoms: _30  and  _33
REMARK   12  A    between atoms: _36  and  _38
REMARK   13  A    between atoms: _38  and  _39
REMARK   14  A    between atoms: _38  and  _41
REMARK   15  A    between atoms: _41  and  _42
REMARK   16  A    between atoms: _45  and  _47
REMARK   17  A    between atoms: _47  and  _48
REMARK   18  A    between atoms: _47  and  _50
REMARK   19  A    between atoms: _50  and  _51
REMARK   20  A    between atoms: _51  and  _52
REMARK   21  A    between atoms: _55  and  _57
REMARK   22  A    between atoms: _57  and  _58
REMARK   23  A    between atoms: _57  and  _60
REMARK   24  A    between atoms: _60  and  _61
REMARK   25  A    between atoms: _64  and  _66
REMARK   26  A    between atoms: _66  and  _67
REMARK   27  A    between atoms: _70  and  _71
REMARK   28  A    between atoms: _76  and  _78
REMARK   29  A    between atoms: _78  and  _79
REMARK   30  A    between atoms: _78  and  _81
REMARK   31  A    between atoms: _81  and  _82
REMARK   32  A    between atoms: _85  and  _87
REMARK   33  A    between atoms: _87  and  _88
REMARK   34  A    between atoms: _91  and  _93
REMARK   35  A    between atoms: _93  and  _94
REMARK   36  A    between atoms: _93  and  _96
REMARK   37  A    between atoms: _96  and  _97
REMARK   38  A    between atoms: _100  and  _102
REMARK   39  A    between atoms: _102  and  _103
REMARK   40  A    between atoms: _105  and  _107
REMARK   41  A    between atoms: _107  and  _108
REMARK   42  A    between atoms: _107  and  _110
REMARK   43  A    between atoms: _110  and  _111
REMARK   44  A    between atoms: _114  and  _116
REMARK   45  A    between atoms: _116  and  _117
REMARK   46  A    between atoms: _116  and  _119
REMARK   47  A    between atoms: _119  and  _120
REMARK   48  A    between atoms: _123  and  _125
REMARK   49  A    between atoms: _125  and  _126
REMARK   50  A    between atoms: _125  and  _128
REMARK   51  A    between atoms: _128  and  _129
REMARK   52  A    between atoms: _129  and  _130
REMARK   53  A    between atoms: _135  and  _137
REMARK   54  A    between atoms: _137  and  _138
REMARK   55  A    between atoms: _137  and  _140
REMARK   56  A    between atoms: _140  and  _141
REMARK   57  A    between atoms: _146  and  _148
REMARK   58  A    between atoms: _148  and  _149
REMARK   59  A    between atoms: _148  and  _151
REMARK   60  A    between atoms: _151  and  _152
REMARK   61  A    between atoms: _155  and  _157
REMARK   62  A    between atoms: _157  and  _158
REMARK   63  A    between atoms: _157  and  _160
REMARK   64  A    between atoms: _160  and  _161
REMARK   65  A    between atoms: _164  and  _166
REMARK   66  A    between atoms: _166  and  _167
REMARK   67  A    between atoms: _166  and  _169
REMARK   68  A    between atoms: _169  and  _170
REMARK   69  A    between atoms: _170  and  _171
REMARK   70  A    between atoms: _173  and  _175
REMARK   71  A    between atoms: _175  and  _176
REMARK   72  A    between atoms: _175  and  _178
REMARK   73  A    between atoms: _178  and  _179
REMARK   74  A    between atoms: _184  and  _185
REMARK   75  A    between atoms: _187  and  _189
REMARK   76  A    between atoms: _189  and  _190
REMARK   77  A    between atoms: _189  and  _192
REMARK   78  A    between atoms: _192  and  _193
REMARK   79  A    between atoms: _196  and  _198
REMARK   80  A    between atoms: _198  and  _199
REMARK   81  A    between atoms: _198  and  _201
REMARK   82  A    between atoms: _204  and  _206
REMARK   83  A    between atoms: _206  and  _207
REMARK   84  A    between atoms: _210  and  _212
REMARK   85  A    between atoms: _212  and  _213
REMARK   86  A    between atoms: _212  and  _215
REMARK   87  A    between atoms: _215  and  _216
REMARK   88  A    between atoms: _219  and  _221
REMARK   89  A    between atoms: _221  and  _222
REMARK   90  A    between atoms: _221  and  _224
REMARK   91  A    between atoms: _224  and  _225
REMARK   92  A    between atoms: _228  and  _230
REMARK   93  A    between atoms: _230  and  _231
REMARK   94  A    between atoms: _230  and  _233
REMARK   95  A    between atoms: _233  and  _234
REMARK   96  A    between atoms: _239  and  _240
REMARK   97  A    between atoms: _242  and  _244
REMARK   98  A    between atoms: _244  and  _245
REMARK   99  A    between atoms: _244  and  _247
REMARK  100  A    between atoms: _247  and  _248
REMARK  101  A    between atoms: _253  and  _254
REMARK  102  A    between atoms: _256  and  _258
REMARK  103  A    between atoms: _258  and  _259
REMARK  104  A    between atoms: _258  and  _261
REMARK  105  A    between atoms: _261  and  _262
REMARK  106  A    between atoms: _265  and  _267
REMARK  107  A    between atoms: _267  and  _268
REMARK  108  A    between atoms: _267  and  _270
REMARK  109  A    between atoms: _270  and  _271
REMARK  110  A    between atoms: _273  and  _275
REMARK  111  A    between atoms: _275  and  _276
REMARK  112  A    between atoms: _275  and  _278
REMARK  113  A    between atoms: _278  and  _279
REMARK  114  A    between atoms: _279  and  _280
REMARK  115  A    between atoms: _280  and  _281
REMARK  116  A    between atoms: _290  and  _292
REMARK  117  A    between atoms: _292  and  _293
REMARK  118  A    between atoms: _295  and  _297
REMARK  119  A    between atoms: _297  and  _298
REMARK  120  A    between atoms: _297  and  _300
REMARK  121  A    between atoms: _303  and  _305
REMARK  122  A    between atoms: _305  and  _306
REMARK  123  A    between atoms: _305  and  _308
REMARK  124  A    between atoms: _308  and  _309
REMARK  125  A    between atoms: _312  and  _314
REMARK  126  A    between atoms: _314  and  _315
REMARK  127  A    between atoms: _317  and  _319
REMARK  128  A    between atoms: _319  and  _320
REMARK  129  A    between atoms: _323  and  _325
REMARK  130  A    between atoms: _325  and  _326
REMARK  131  A    between atoms: _325  and  _328
REMARK  132  A    between atoms: _328  and  _329
REMARK  133  A    between atoms: _329  and  _330
REMARK  134  A    between atoms: _333  and  _335
REMARK  135  A    between atoms: _335  and  _336
REMARK  136  A    between atoms: _335  and  _338
REMARK  137  A    between atoms: _338  and  _339
REMARK  138  A    between atoms: _344  and  _346
REMARK  139  A    between atoms: _346  and  _347
REMARK  140  A    between atoms: _346  and  _349
REMARK  141  A    between atoms: _349  and  _350
REMARK  142  A    between atoms: _350  and  _351
REMARK  143  A    between atoms: _351  and  _352
REMARK  144  A    between atoms: _361  and  _363
REMARK  145  A    between atoms: _363  and  _364
REMARK  146  A    between atoms: _366  and  _368
REMARK  147  A    between atoms: _368  and  _369
REMARK  148  A    between atoms: _368  and  _371
REMARK  149  A    between atoms: _371  and  _372
REMARK  150  A    between atoms: _375  and  _377
REMARK  151  A    between atoms: _377  and  _378
REMARK  152  A    between atoms: _377  and  _380
REMARK  153  A    between atoms: _380  and  _381
REMARK  154  A    between atoms: _381  and  _382
REMARK  155  A    between atoms: _387  and  _389
REMARK  156  A    between atoms: _389  and  _390
REMARK  157  A    between atoms: _392  and  _394
REMARK  158  A    between atoms: _394  and  _395
REMARK  159  A    between atoms: _394  and  _397
REMARK  160  A    between atoms: _397  and  _398
REMARK  161  A    between atoms: _404  and  _406
REMARK  162  A    between atoms: _406  and  _407
REMARK  163  A    between atoms: _409  and  _411
REMARK  164  A    between atoms: _411  and  _412
REMARK  165  A    between atoms: _411  and  _414
REMARK  166  A    between atoms: _414  and  _415
REMARK  167  A    between atoms: _418  and  _420
REMARK  168  A    between atoms: _420  and  _421
REMARK  169  A    between atoms: _420  and  _423
REMARK  170  A    between atoms: _423  and  _424
REMARK  171  A    between atoms: _426  and  _428
REMARK  172  A    between atoms: _428  and  _429
REMARK  173  A    between atoms: _428  and  _431
REMARK  174  A    between atoms: _431  and  _432
REMARK  175  A    between atoms: _432  and  _433
REMARK  176  A    between atoms: _438  and  _440
REMARK  177  A    between atoms: _440  and  _441
REMARK  178  A    between atoms: _440  and  _443
REMARK  179  A    between atoms: _443  and  _444
REMARK  180  A    between atoms: _447  and  _449
REMARK  181  A    between atoms: _449  and  _450
REMARK  182  A    between atoms: _449  and  _452
REMARK  183  A    between atoms: _452  and  _453
REMARK  184  A    between atoms: _455  and  _457
REMARK  185  A    between atoms: _457  and  _458
REMARK  186  A    between atoms: _460  and  _462
REMARK  187  A    between atoms: _462  and  _463
REMARK  188  A    between atoms: _462  and  _465
REMARK  189  A    between atoms: _465  and  _466
REMARK  190  A    between atoms: _468  and  _470
REMARK  191  A    between atoms: _470  and  _471
REMARK  192  A    between atoms: _474  and  _476
REMARK  193  A    between atoms: _476  and  _477
REMARK  194  A    between atoms: _476  and  _479
REMARK  195  A    between atoms: _479  and  _480
REMARK  196  A    between atoms: _483  and  _485
REMARK  197  A    between atoms: _485  and  _486
REMARK  198  A    between atoms: _485  and  _488
REMARK  199  A    between atoms: _491  and  _493
REMARK  200  A    between atoms: _493  and  _494
REMARK  201  A    between atoms: _493  and  _496
REMARK  202  A    between atoms: _496  and  _497
REMARK  203  A    between atoms: _497  and  _498
REMARK  204  A    between atoms: _498  and  _499
REMARK  205  A    between atoms: _499  and  _500
REMARK  206  A    between atoms: _505  and  _506
REMARK                            x       y       z     vdW  Elec       q    Type
REMARK                         _______ _______ _______ _____ _____    ______ ____
ROOT
ATOM      1  C   GLU A   1      46.801  31.214  20.769  0.00  0.00    +0.238 C 
ATOM      2  N   LEU A   2      47.678  30.937  21.726  0.00  0.00    -0.297 N 
ATOM      3  H   LEU A   2      47.572  30.055  22.267  0.00  0.00    +0.150 HD
ATOM      4  O   GLU A   1      46.967  32.191  19.988  0.00  0.00    -0.274 OA
ENDROOT
BRANCH   1   5
ATOM      5  CA  GLU A   1      45.564  30.288  20.644  0.00  0.00    +0.145 C 
BRANCH   5   6
ATOM      6  N   GLU A   1      44.454  31.263  20.645  0.00  0.00    -0.238 NA
ATOM      7  H   GLU A   1      44.403  31.990  19.903  0.00  0.00    +0.142 HD
ENDBRANCH   5   6
BRANCH   5   8
ATOM      8  CB  GLU A   1      45.607  29.494  19.350  0.00  0.00    +0.038 C 
BRANCH   8   9
ATOM      9  CG  GLU A   1      46.652  28.410  19.434  0.00  0.00    +0.116 C 
BRANCH   9  10
ATOM     10  CD  GLU A   1      47.021  27.821  18.079  0.00  0.00    +0.365 C 
ATOM     11  OE2 GLU A   1      48.214  27.502  17.924  0.00  0.00    -0.246 OA
ATOM     12  OE1 GLU A   1      46.155  27.697  17.217  0.00  0.00    -0.246 OA
ENDBRANCH   9  10
ENDBRANCH   8   9
ENDBRANCH   5   8
ENDBRANCH   1   5
BRANCH   2  13
ATOM     13  CA  LEU A   2      48.782  31.829  22.040  0.00  0.00    +0.149 C 
BRANCH  13  14
ATOM     14  C   LEU A   2      50.084  31.058  22.091  0.00  0.00    +0.241 C 
ATOM     15  O   LEU A   2      50.229  30.081  22.829  0.00  0.00    -0.273 OA
ATOM     16  N   GLY A   3      51.049  31.547  21.314  0.00  0.00    -0.296 N 
ATOM     17  H   GLY A   3      50.876  32.408  20.756  0.00  0.00    +0.150 HD
BRANCH  16  18
ATOM     18  CA  GLY A   3      52.346  30.884  21.240  0.00  0.00    +0.163 C 
BRANCH  18  19
ATOM     19  C   GLY A   3      53.363  31.416  22.193  0.00  0.00    +0.229 C 
ATOM     20  O   GLY A   3      53.496  32.609  22.396  0.00  0.00    -0.286 OA
ENDBRANCH  18  19
ENDBRANCH  16  18
ENDBRANCH  13  14
BRANCH  13  21
ATOM     21  CB  LEU A   2      48.522  32.501  23.412  0.00  0.00    +0.029 C 
BRANCH  21  22
ATOM     22  CG  LEU A   2      47.205  33.288  23.435  0.00  0.00    +0.002 C 
ATOM     23  CD2 LEU A   2      46.938  33.760  24.899  0.00  0.00    +0.000 C 
ATOM     24  CD1 LEU A   2      47.314  34.537  22.442  0.00  0.00    +0.000 C 
ENDBRANCH  21  22
ENDBRANCH  13  21
ENDBRANCH   2  13
TORSDOF 11
REMARK  Name = ../refined-set-2016/1tjp/1tjp_pocket.pdb
REMARK  206 active torsions:
REMARK  status: ('A' for Active; 'I' for Inactive)
REMARK    1  A    between atoms: _1  and  _3
REMARK    2  A    between atoms: _3  and  _4
REMARK    3  A    between atoms: _3  and  _6
REMARK    4  A    between atoms: _10  and  _11
REMARK    5  A    between atoms: _16  and  _18
REMARK    6  A    between atoms: _18  and  _19
REMARK    7  A    between atoms: _18  and  _21
REMARK    8  A    between atoms: _21  and  _22
REMARK    9  A    between atoms: _28  and  _30
REMARK   10  A    between atoms: _30  and  _31
REMARK   11  A    between atoms: _30  and  _33
REMARK   12  A    between atoms: _36  and  _38
REMARK   13  A    between atoms: _38  and  _39
REMARK   14  A    between atoms: _38  and  _41
REMARK   15  A    between atoms: _41  and  _42
REMARK   16  A    between atoms: _45  and  _47
REMARK   17  A    between atoms: _47  and  _48
REMARK   18  A    between atoms: _47  and  _50
REMARK   19  A    between atoms: _50  and  _51
REMARK   20  A    between atoms: _51  and  _52
REMARK   21  A    between atoms: _55  and  _57
REMARK   22  A    between atoms: _57  and  _58
REMARK   23  A    between atoms: _57  and  _60
REMARK   24  A    between atoms: _60  and  _61
REMARK   25  A    between atoms: _64  and  _66
REMARK   26  A    between atoms: _66  and  _67
REMARK   27  A    between atoms: _70  and  _71
REMARK   28  A    between atoms: _76  and  _78
REMARK   29  A    between atoms: _78  and  _79
REMARK   30  A    between atoms: _78  and  _81
REMARK   31  A    between atoms: _81  and  _82
REMARK   32  A    between atoms: _85  and  _87
REMARK   33  A    between atoms: _87  and  _88
REMARK   34  A    between atoms: _91  and  _93
REMARK   35  A    between atoms: _93  and  _94
REMARK   36  A    between atoms: _93  and  _96
REMARK   37  A    between atoms: _96  and  _97
REMARK   38  A    between atoms: _100  and  _102
REMARK   39  A    between atoms: _102  and  _103
REMARK   40  A    between atoms: _105  and  _107
REMARK   41  A    between atoms: _107  and  _108
REMARK   42  A    between atoms: _107  and  _110
REMARK   43  A    between atoms: _110  and  _111
REMARK   44  A    between atoms: _114  and  _116
REMARK   45  A    between atoms: _116  and  _117
REMARK   46  A    between atoms: _116  and  _119
REMARK   47  A    between atoms: _119  and  _120
REMARK   48  A    between atoms: _123  and  _125
REMARK   49  A    between atoms: _125  and  _126
REMARK   50  A    between atoms: _125  and  _128
REMARK   51  A    between atoms: _128  and  _129
REMARK   52  A    between atoms: _129  and  _130
REMARK   53  A    between atoms: _135  and  _137
REMARK   54  A    between atoms: _137  and  _138
REMARK   55  A    between atoms: _137  and  _140
REMARK   56  A    between atoms: _140  and  _141
REMARK   57  A    between atoms: _146  and  _148
REMARK   58  A    between atoms: _148  and  _149
REMARK   59  A    between atoms: _148  and  _151
REMARK   60  A    between atoms: _151  and  _152
REMARK   61  A    between atoms: _155  and  _157
REMARK   62  A    between atoms: _157  and  _158
REMARK   63  A    between atoms: _157  and  _160
REMARK   64  A    between atoms: _160  and  _161
REMARK   65  A    between atoms: _164  and  _166
REMARK   66  A    between atoms: _166  and  _167
REMARK   67  A    between atoms: _166  and  _169
REMARK   68  A    between atoms: _169  and  _170
REMARK   69  A    between atoms: _170  and  _171
REMARK   70  A    between atoms: _173  and  _175
REMARK   71  A    between atoms: _175  and  _176
REMARK   72  A    between atoms: _175  and  _178
REMARK   73  A    between atoms: _178  and  _179
REMARK   74  A    between atoms: _184  and  _185
REMARK   75  A    between atoms: _187  and  _189
REMARK   76  A    between atoms: _189  and  _190
REMARK   77  A    between atoms: _189  and  _192
REMARK   78  A    between atoms: _192  and  _193
REMARK   79  A    between atoms: _196  and  _198
REMARK   80  A    between atoms: _198  and  _199
REMARK   81  A    between atoms: _198  and  _201
REMARK   82  A    between atoms: _204  and  _206
REMARK   83  A    between atoms: _206  and  _207
REMARK   84  A    between atoms: _210  and  _212
REMARK   85  A    between atoms: _212  and  _213
REMARK   86  A    between atoms: _212  and  _215
REMARK   87  A    between atoms: _215  and  _216
REMARK   88  A    between atoms: _219  and  _221
REMARK   89  A    between atoms: _221  and  _222
REMARK   90  A    between atoms: _221  and  _224
REMARK   91  A    between atoms: _224  and  _225
REMARK   92  A    between atoms: _228  and  _230
REMARK   93  A    between atoms: _230  and  _231
REMARK   94  A    between atoms: _230  and  _233
REMARK   95  A    between atoms: _233  and  _234
REMARK   96  A    between atoms: _239  and  _240
REMARK   97  A    between atoms: _242  and  _244
REMARK   98  A    between atoms: _244  and  _245
REMARK   99  A    between atoms: _244  and  _247
REMARK  100  A    between atoms: _247  and  _248
REMARK  101  A    between atoms: _253  and  _254
REMARK  102  A    between atoms: _256  and  _258
REMARK  103  A    between atoms: _258  and  _259
REMARK  104  A    between atoms: _258  and  _261
REMARK  105  A    between atoms: _261  and  _262
REMARK  106  A    between atoms: _265  and  _267
REMARK  107  A    between atoms: _267  and  _268
REMARK  108  A    between atoms: _267  and  _270
REMARK  109  A    between atoms: _270  and  _271
REMARK  110  A    between atoms: _273  and  _275
REMARK  111  A    between atoms: _275  and  _276
REMARK  112  A    between atoms: _275  and  _278
REMARK  113  A    between atoms: _278  and  _279
REMARK  114  A    between atoms: _279  and  _280
REMARK  115  A    between atoms: _280  and  _281
REMARK  116  A    between atoms: _290  and  _292
REMARK  117  A    between atoms: _292  and  _293
REMARK  118  A    between atoms: _295  and  _297
REMARK  119  A    between atoms: _297  and  _298
REMARK  120  A    between atoms: _297  and  _300
REMARK  121  A    between atoms: _303  and  _305
REMARK  122  A    between atoms: _305  and  _306
REMARK  123  A    between atoms: _305  and  _308
REMARK  124  A    between atoms: _308  and  _309
REMARK  125  A    between atoms: _312  and  _314
REMARK  126  A    between atoms: _314  and  _315
REMARK  127  A    between atoms: _317  and  _319
REMARK  128  A    between atoms: _319  and  _320
REMARK  129  A    between atoms: _323  and  _325
REMARK  130  A    between atoms: _325  and  _326
REMARK  131  A    between atoms: _325  and  _328
REMARK  132  A    between atoms: _328  and  _329
REMARK  133  A    between atoms: _329  and  _330
REMARK  134  A    between atoms: _333  and  _335
REMARK  135  A    between atoms: _335  and  _336
REMARK  136  A    between atoms: _335  and  _338
REMARK  137  A    between atoms: _338  and  _339
REMARK  138  A    between atoms: _344  and  _346
REMARK  139  A    between atoms: _346  and  _347
REMARK  140  A    between atoms: _346  and  _349
REMARK  141  A    between atoms: _349  and  _350
REMARK  142  A    between atoms: _350  and  _351
REMARK  143  A    between atoms: _351  and  _352
REMARK  144  A    between atoms: _361  and  _363
REMARK  145  A    between atoms: _363  and  _364
REMARK  146  A    between atoms: _366  and  _368
REMARK  147  A    between atoms: _368  and  _369
REMARK  148  A    between atoms: _368  and  _371
REMARK  149  A    between atoms: _371  and  _372
REMARK  150  A    between atoms: _375  and  _377
REMARK  151  A    between atoms: _377  and  _378
REMARK  152  A    between atoms: _377  and  _380
REMARK  153  A    between atoms: _380  and  _381
REMARK  154  A    between atoms: _381  and  _382
REMARK  155  A    between atoms: _387  and  _389
REMARK  156  A    between atoms: _389  and  _390
REMARK  157  A    between atoms: _392  and  _394
REMARK  158  A    between atoms: _394  and  _395
REMARK  159  A    between atoms: _394  and  _397
REMARK  160  A    between atoms: _397  and  _398
REMARK  161  A    between atoms: _404  and  _406
REMARK  162  A    between atoms: _406  and  _407
REMARK  163  A    between atoms: _409  and  _411
REMARK  164  A    between atoms: _411  and  _412
REMARK  165  A    between atoms: _411  and  _414
REMARK  166  A    between atoms: _414  and  _415
REMARK  167  A    between atoms: _418  and  _420
REMARK  168  A    between atoms: _420  and  _421
REMARK  169  A    between atoms: _420  and  _423
REMARK  170  A    between atoms: _423  and  _424
REMARK  171  A    between atoms: _426  and  _428
REMARK  172  A    between atoms: _428  and  _429
REMARK  173  A    between atoms: _428  and  _431
REMARK  174  A    between atoms: _431  and  _432
REMARK  175  A    between atoms: _432  and  _433
REMARK  176  A    between atoms: _438  and  _440
REMARK  177  A    between atoms: _440  and  _441
REMARK  178  A    between atoms: _440  and  _443
REMARK  179  A    between atoms: _443  and  _444
REMARK  180  A    between atoms: _447  and  _449
REMARK  181  A    between atoms: _449  and  _450
REMARK  182  A    between atoms: _449  and  _452
REMARK  183  A    between atoms: _452  and  _453
REMARK  184  A    between atoms: _455  and  _457
REMARK  185  A    between atoms: _457  and  _458
REMARK  186  A    between atoms: _460  and  _462
REMARK  187  A    between atoms: _462  and  _463
REMARK  188  A    between atoms: _462  and  _465
REMARK  189  A    between atoms: _465  and  _466
REMARK  190  A    between atoms: _468  and  _470
REMARK  191  A    between atoms: _470  and  _471
REMARK  192  A    between atoms: _474  and  _476
REMARK  193  A    between atoms: _476  and  _477
REMARK  194  A    between atoms: _476  and  _479
REMARK  195  A    between atoms: _479  and  _480
REMARK  196  A    between atoms: _483  and  _485
REMARK  197  A    between atoms: _485  and  _486
REMARK  198  A    between atoms: _485  and  _488
REMARK  199  A    between atoms: _491  and  _493
REMARK  200  A    between atoms: _493  and  _494
REMARK  201  A    between atoms: _493  and  _496
REMARK  202  A    between atoms: _496  and  _497
REMARK  203  A    between atoms: _497  and  _498
REMARK  204  A    between atoms: _498  and  _499
REMARK  205  A    between atoms: _499  and  _500
REMARK  206  A    between atoms: _505  and  _506
REMARK                            x       y       z     vdW  Elec       q    Type
REMARK                         _______ _______ _______ _____ _____    ______ ____
ROOT
ATOM      1  C   LEU A   2      58.590  23.220  12.694  0.00  0.00    +0.241 C 
ATOM      2  N   ALA A   3      57.414  23.615  13.231  0.00  0.00    -0.297 N 
ATOM      3  H   ALA A   3      57.408  24.076  14.163  0.00  0.00    +0.150 HD
ATOM      4  O   LEU A   2      58.655  22.606  11.619  0.00  0.00    -0.273 OA
ENDROOT
BRANCH   2   5
ATOM      5  CA  ALA A   3      56.126  23.403  12.513  0.00  0.00    +0.149 C 
ATOM      6  CB  ALA A   3      55.037  22.833  13.474  0.00  0.00    +0.031 C 
BRANCH   5   7
ATOM      7  C   ALA A   3      55.634  24.711  11.923  0.00  0.00    +0.241 C 
ATOM      8  N   ASP A   4      56.459  25.759  12.004  0.00  0.00    -0.297 N 
ATOM      9  H   ASP A   4      57.404  25.646  12.422  0.00  0.00    +0.150 HD
ATOM     10  O   ALA A   3      54.517  24.791  11.403  0.00  0.00    -0.273 OA
BRANCH   8  11
ATOM     11  CA  ASP A   4      56.031  27.069  11.503  0.00  0.00    +0.160 C 
BRANCH  11  12
ATOM     12  C   ASP A   4      56.736  27.607  10.269  0.00  0.00    +0.241 C 
ATOM     13  O   ASP A   4      57.961  27.487  10.142  0.00  0.00    -0.273 OA
ATOM     14  N   GLY A   5      55.941  28.224   9.389  0.00  0.00    -0.296 N 
ATOM     15  H   GLY A   5      54.914  28.226   9.552  0.00  0.00    +0.150 HD
BRANCH  14  16
ATOM     16  CA  GLY A   5      56.474  28.898   8.202  0.00  0.00    +0.163 C 
BRANCH  16  17
ATOM     17  C   GLY A   5      57.115  30.242   8.585  0.00  0.00    +0.229 C 
ATOM     18  O   GLY A   5      57.155  30.655   9.747  0.00  0.00    -0.286 OA
ENDBRANCH  16  17
ENDBRANCH  14  16
ENDBRANCH  11  12
BRANCH  11  19
ATOM     19  CB  ASP A   4      56.197  28.113  12.628  0.00  0.00    +0.143 C 
BRANCH  19  20
ATOM     20  CG  ASP A   4      55.150  27.949  13.730  0.00  0.00    +0.367 C 
ATOM     21  OD2 ASP A   4      55.516  27.629  14.913  0.00  0.00    -0.246 OA
ATOM     22  OD1 ASP A   4      53.957  28.154  13.383  0.00  0.00    -0.246 OA
ENDBRANCH  19  20
ENDBRANCH  11  19
ENDBRANCH   8  11
ENDBRANCH   5   7
ENDBRANCH   2   5
BRANCH   1  23
ATOM     23  CA  LEU A   2      59.890  23.605  13.412  0.00  0.00    +0.149 C 
BRANCH  23  25
ATOM     24  C   PRO A   1      59.515  25.740  14.513  0.00  0.00    +0.239 C 
ATOM     25  N   LEU A   2      59.794  24.432  14.608  0.00  0.00    -0.297 N 
ATOM     26  H   LEU A   2      59.943  24.004  15.544  0.00  0.00    +0.150 HD
ATOM     27  O   PRO A   1      59.154  26.285  13.473  0.00  0.00    -0.274 OA
BRANCH  24  32
ATOM     28  N   PRO A   1      61.033  26.880  16.162  0.00  0.00    -0.210 NA
ATOM     29  CD  PRO A   1      61.335  28.313  15.912  0.00  0.00    +0.089 C 
ATOM     30  CG  PRO A   1      60.047  28.837  15.310  0.00  0.00    +0.021 C 
ATOM     31  CB  PRO A   1      58.905  27.875  15.817  0.00  0.00    +0.028 C 
ATOM     32  CA  PRO A   1      59.624  26.513  15.823  0.00  0.00    +0.149 C 
ENDBRANCH  24  32
ENDBRANCH  23  25
BRANCH  23  33
ATOM     33  CB  LEU A   2      60.801  22.400  13.757  0.00  0.00    +0.029 C 
BRANCH  33  34
ATOM     34  CG  LEU A   2      60.342  21.460  14.873  0.00  0.00    +0.002 C 
ATOM     35  CD2 LEU A   2      61.487  20.537  15.375  0.00  0.00    +0.000 C 
ATOM     36  CD1 LEU A   2      59.211  20.644  14.349  0.00  0.00    +0.000 C 
ENDBRANCH  33  34
ENDBRANCH  23  33
ENDBRANCH   1  23
TORSDOF 13
REMARK  Name = ../refined-set-2016/1tjp/1tjp_pocket.pdb
REMARK  206 active torsions:
REMARK  status: ('A' for Active; 'I' for Inactive)
REMARK    1  A    between atoms: _1  and  _3
REMARK    2  A    between atoms: _3  and  _4
REMARK    3  A    between atoms: _3  and  _6
REMARK    4  A    between atoms: _10  and  _11
REMARK    5  A    between atoms: _16  and  _18
REMARK    6  A    between atoms: _18  and  _19
REMARK    7  A    between atoms: _18  and  _21
REMARK    8  A    between atoms: _21  and  _22
REMARK    9  A    between atoms: _28  and  _30
REMARK   10  A    between atoms: _30  and  _31
REMARK   11  A    between atoms: _30  and  _33
REMARK   12  A    between atoms: _36  and  _38
REMARK   13  A    between atoms: _38  and  _39
REMARK   14  A    between atoms: _38  and  _41
REMARK   15  A    between atoms: _41  and  _42
REMARK   16  A    between atoms: _45  and  _47
REMARK   17  A    between atoms: _47  and  _48
REMARK   18  A    between atoms: _47  and  _50
REMARK   19  A    between atoms: _50  and  _51
REMARK   20  A    between atoms: _51  and  _52
REMARK   21  A    between atoms: _55  and  _57
REMARK   22  A    between atoms: _57  and  _58
REMARK   23  A    between atoms: _57  and  _60
REMARK   24  A    between atoms: _60  and  _61
REMARK   25  A    between atoms: _64  and  _66
REMARK   26  A    between atoms: _66  and  _67
REMARK   27  A    between atoms: _70  and  _71
REMARK   28  A    between atoms: _76  and  _78
REMARK   29  A    between atoms: _78  and  _79
REMARK   30  A    between atoms: _78  and  _81
REMARK   31  A    between atoms: _81  and  _82
REMARK   32  A    between atoms: _85  and  _87
REMARK   33  A    between atoms: _87  and  _88
REMARK   34  A    between atoms: _91  and  _93
REMARK   35  A    between atoms: _93  and  _94
REMARK   36  A    between atoms: _93  and  _96
REMARK   37  A    between atoms: _96  and  _97
REMARK   38  A    between atoms: _100  and  _102
REMARK   39  A    between atoms: _102  and  _103
REMARK   40  A    between atoms: _105  and  _107
REMARK   41  A    between atoms: _107  and  _108
REMARK   42  A    between atoms: _107  and  _110
REMARK   43  A    between atoms: _110  and  _111
REMARK   44  A    between atoms: _114  and  _116
REMARK   45  A    between atoms: _116  and  _117
REMARK   46  A    between atoms: _116  and  _119
REMARK   47  A    between atoms: _119  and  _120
REMARK   48  A    between atoms: _123  and  _125
REMARK   49  A    between atoms: _125  and  _126
REMARK   50  A    between atoms: _125  and  _128
REMARK   51  A    between atoms: _128  and  _129
REMARK   52  A    between atoms: _129  and  _130
REMARK   53  A    between atoms: _135  and  _137
REMARK   54  A    between atoms: _137  and  _138
REMARK   55  A    between atoms: _137  and  _140
REMARK   56  A    between atoms: _140  and  _141
REMARK   57  A    between atoms: _146  and  _148
REMARK   58  A    between atoms: _148  and  _149
REMARK   59  A    between atoms: _148  and  _151
REMARK   60  A    between atoms: _151  and  _152
REMARK   61  A    between atoms: _155  and  _157
REMARK   62  A    between atoms: _157  and  _158
REMARK   63  A    between atoms: _157  and  _160
REMARK   64  A    between atoms: _160  and  _161
REMARK   65  A    between atoms: _164  and  _166
REMARK   66  A    between atoms: _166  and  _167
REMARK   67  A    between atoms: _166  and  _169
REMARK   68  A    between atoms: _169  and  _170
REMARK   69  A    between atoms: _170  and  _171
REMARK   70  A    between atoms: _173  and  _175
REMARK   71  A    between atoms: _175  and  _176
REMARK   72  A    between atoms: _175  and  _178
REMARK   73  A    between atoms: _178  and  _179
REMARK   74  A    between atoms: _184  and  _185
REMARK   75  A    between atoms: _187  and  _189
REMARK   76  A    between atoms: _189  and  _190
REMARK   77  A    between atoms: _189  and  _192
REMARK   78  A    between atoms: _192  and  _193
REMARK   79  A    between atoms: _196  and  _198
REMARK   80  A    between atoms: _198  and  _199
REMARK   81  A    between atoms: _198  and  _201
REMARK   82  A    between atoms: _204  and  _206
REMARK   83  A    between atoms: _206  and  _207
REMARK   84  A    between atoms: _210  and  _212
REMARK   85  A    between atoms: _212  and  _213
REMARK   86  A    between atoms: _212  and  _215
REMARK   87  A    between atoms: _215  and  _216
REMARK   88  A    between atoms: _219  and  _221
REMARK   89  A    between atoms: _221  and  _222
REMARK   90  A    between atoms: _221  and  _224
REMARK   91  A    between atoms: _224  and  _225
REMARK   92  A    between atoms: _228  and  _230
REMARK   93  A    between atoms: _230  and  _231
REMARK   94  A    between atoms: _230  and  _233
REMARK   95  A    between atoms: _233  and  _234
REMARK   96  A    between atoms: _239  and  _240
REMARK   97  A    between atoms: _242  and  _244
REMARK   98  A    between atoms: _244  and  _245
REMARK   99  A    between atoms: _244  and  _247
REMARK  100  A    between atoms: _247  and  _248
REMARK  101  A    between atoms: _253  and  _254
REMARK  102  A    between atoms: _256  and  _258
REMARK  103  A    between atoms: _258  and  _259
REMARK  104  A    between atoms: _258  and  _261
REMARK  105  A    between atoms: _261  and  _262
REMARK  106  A    between atoms: _265  and  _267
REMARK  107  A    between atoms: _267  and  _268
REMARK  108  A    between atoms: _267  and  _270
REMARK  109  A    between atoms: _270  and  _271
REMARK  110  A    between atoms: _273  and  _275
REMARK  111  A    between atoms: _275  and  _276
REMARK  112  A    between atoms: _275  and  _278
REMARK  113  A    between atoms: _278  and  _279
REMARK  114  A    between atoms: _279  and  _280
REMARK  115  A    between atoms: _280  and  _281
REMARK  116  A    between atoms: _290  and  _292
REMARK  117  A    between atoms: _292  and  _293
REMARK  118  A    between atoms: _295  and  _297
REMARK  119  A    between atoms: _297  and  _298
REMARK  120  A    between atoms: _297  and  _300
REMARK  121  A    between atoms: _303  and  _305
REMARK  122  A    between atoms: _305  and  _306
REMARK  123  A    between atoms: _305  and  _308
REMARK  124  A    between atoms: _308  and  _309
REMARK  125  A    between atoms: _312  and  _314
REMARK  126  A    between atoms: _314  and  _315
REMARK  127  A    between atoms: _317  and  _319
REMARK  128  A    between atoms: _319  and  _320
REMARK  129  A    between atoms: _323  and  _325
REMARK  130  A    between atoms: _325  and  _326
REMARK  131  A    between atoms: _325  and  _328
REMARK  132  A    between atoms: _328  and  _329
REMARK  133  A    between atoms: _329  and  _330
REMARK  134  A    between atoms: _333  and  _335
REMARK  135  A    between atoms: _335  and  _336
REMARK  136  A    between atoms: _335  and  _338
REMARK  137  A    between atoms: _338  and  _339
REMARK  138  A    between atoms: _344  and  _346
REMARK  139  A    between atoms: _346  and  _347
REMARK  140  A    between atoms: _346  and  _349
REMARK  141  A    between atoms: _349  and  _350
REMARK  142  A    between atoms: _350  and  _351
REMARK  143  A    between atoms: _351  and  _352
REMARK  144  A    between atoms: _361  and  _363
REMARK  145  A    between atoms: _363  and  _364
REMARK  146  A    between atoms: _366  and  _368
REMARK  147  A    between atoms: _368  and  _369
REMARK  148  A    between atoms: _368  and  _371
REMARK  149  A    between atoms: _371  and  _372
REMARK  150  A    between atoms: _375  and  _377
REMARK  151  A    between atoms: _377  and  _378
REMARK  152  A    between atoms: _377  and  _380
REMARK  153  A    between atoms: _380  and  _381
REMARK  154  A    between atoms: _381  and  _382
REMARK  155  A    between atoms: _387  and  _389
REMARK  156  A    between atoms: _389  and  _390
REMARK  157  A    between atoms: _392  and  _394
REMARK  158  A    between atoms: _394  and  _395
REMARK  159  A    between atoms: _394  and  _397
REMARK  160  A    between atoms: _397  and  _398
REMARK  161  A    between atoms: _404  and  _406
REMARK  162  A    between atoms: _406  and  _407
REMARK  163  A    between atoms: _409  and  _411
REMARK  164  A    between atoms: _411  and  _412
REMARK  165  A    between atoms: _411  and  _414
REMARK  166  A    between atoms: _414  and  _415
REMARK  167  A    between atoms: _418  and  _420
REMARK  168  A    between atoms: _420  and  _421
REMARK  169  A    between atoms: _420  and  _423
REMARK  170  A    between atoms: _423  and  _424
REMARK  171  A    between atoms: _426  and  _428
REMARK  172  A    between atoms: _428  and  _429
REMARK  173  A    between atoms: _428  and  _431
REMARK  174  A    between atoms: _431  and  _432
REMARK  175  A    between atoms: _432  and  _433
REMARK  176  A    between atoms: _438  and  _440
REMARK  177  A    between atoms: _440  and  _441
REMARK  178  A    between atoms: _440  and  _443
REMARK  179  A    between atoms: _443  and  _444
REMARK  180  A    between atoms: _447  and  _449
REMARK  181  A    between atoms: _449  and  _450
REMARK  182  A    between atoms: _449  and  _452
REMARK  183  A    between atoms: _452  and  _453
REMARK  184  A    between atoms: _455  and  _457
REMARK  185  A    between atoms: _457  and  _458
REMARK  186  A    between atoms: _460  and  _462
REMARK  187  A    between atoms: _462  and  _463
REMARK  188  A    between atoms: _462  and  _465
REMARK  189  A    between atoms: _465  and  _466
REMARK  190  A    between atoms: _468  and  _470
REMARK  191  A    between atoms: _470  and  _471
REMARK  192  A    between atoms: _474  and  _476
REMARK  193  A    between atoms: _476  and  _477
REMARK  194  A    between atoms: _476  and  _479
REMARK  195  A    between atoms: _479  and  _480
REMARK  196  A    between atoms: _483  and  _485
REMARK  197  A    between atoms: _485  and  _486
REMARK  198  A    between atoms: _485  and  _488
REMARK  199  A    between atoms: _491  and  _493
REMARK  200  A    between atoms: _493  and  _494
REMARK  201  A    between atoms: _493  and  _496
REMARK  202  A    between atoms: _496  and  _497
REMARK  203  A    between atoms: _497  and  _498
REMARK  204  A    between atoms: _498  and  _499
REMARK  205  A    between atoms: _499  and  _500
REMARK  206  A    between atoms: _505  and  _506
REMARK                            x       y       z     vdW  Elec       q    Type
REMARK                         _______ _______ _______ _____ _____    ______ ____
ROOT
ATOM      1  CA  ILE A   2      55.413  32.815  12.570  0.00  0.00    +0.148 C 
ENDROOT
BRANCH   1   4
ATOM      2  C   THR A   1      55.603  34.273  10.659  0.00  0.00    +0.241 C 
ATOM      3  O   THR A   1      55.928  35.218  11.405  0.00  0.00    -0.274 OA
ATOM      4  N   ILE A   2      55.328  33.050  11.128  0.00  0.00    -0.297 N 
ATOM      5  H   ILE A   2      55.059  32.282  10.480  0.00  0.00    +0.150 HD
BRANCH   2   6
ATOM      6  CA  THR A   1      55.500  34.467   9.148  0.00  0.00    +0.172 C 
BRANCH   6   7
ATOM      7  N   THR A   1      56.236  33.418   8.436  0.00  0.00    -0.236 NA
ATOM      8  H   THR A   1      55.753  32.778   7.774  0.00  0.00    +0.142 HD
ENDBRANCH   6   7
BRANCH   6   9
ATOM      9  CB  THR A   1      54.042  34.493   8.709  0.00  0.00    +0.135 C 
ATOM     10  CG2 THR A   1      53.239  35.516   9.517  0.00  0.00    +0.034 C 
BRANCH   9  11
ATOM     11  OG1 THR A   1      53.990  34.871   7.309  0.00  0.00    -0.383 OA
ATOM     12  HG1 THR A   1      54.394  35.768   7.195  0.00  0.00    +0.210 HD
ENDBRANCH   9  11
ENDBRANCH   6   9
ENDBRANCH   2   6
ENDBRANCH   1   4
BRANCH   1  13
ATOM     13  C   ILE A   2      56.886  32.673  13.035  0.00  0.00    +0.241 C 
ATOM     14  O   ILE A   2      57.215  33.043  14.162  0.00  0.00    -0.273 OA
ATOM     15  N   GLN A   3      57.792  32.225  12.152  0.00  0.00    -0.298 N 
ATOM     16  H   GLN A   3      57.505  31.891  11.210  0.00  0.00    +0.150 HD
BRANCH  15  17
ATOM     17  CA  GLN A   3      59.211  32.222  12.565  0.00  0.00    +0.137 C 
BRANCH  17  18
ATOM     18  C   GLN A   3      59.580  33.673  12.948  0.00  0.00    +0.227 C 
ATOM     19  O   GLN A   3      60.305  33.914  13.935  0.00  0.00    -0.286 OA
ENDBRANCH  17  18
BRANCH  17  20
ATOM     20  CB  GLN A   3      60.122  31.826  11.416  0.00  0.00    +0.037 C 
BRANCH  20  21
ATOM     21  CG  GLN A   3      60.123  30.332  11.095  0.00  0.00    +0.087 C 
BRANCH  21  22
ATOM     22  CD  GLN A   3      60.688  30.095   9.694  0.00  0.00    +0.219 C 
ATOM     23  OE1 GLN A   3      61.604  30.830   9.230  0.00  0.00    -0.275 OA
ATOM     24  NE2 GLN A   3      60.146  29.106   8.994  0.00  0.00    -0.329 N 
ATOM     25 HE21 GLN A   3      59.393  28.524   9.413  0.00  0.00    +0.145 HD
ATOM     26 HE22 GLN A   3      60.474  28.913   8.026  0.00  0.00    +0.145 HD
ENDBRANCH  21  22
ENDBRANCH  20  21
ENDBRANCH  17  20
ENDBRANCH  15  17
ENDBRANCH   1  13
BRANCH   1  27
ATOM     27  CB  ILE A   2      54.451  31.671  12.961  0.00  0.00    +0.027 C 
ATOM     28  CG2 ILE A   2      54.655  31.247  14.420  0.00  0.00    +0.002 C 
BRANCH  27  29
ATOM     29  CG1 ILE A   2      53.018  32.234  12.890  0.00  0.00    +0.002 C 
ATOM     30  CD1 ILE A   2      51.960  31.109  12.856  0.00  0.00    +0.000 C 
ENDBRANCH  27  29
ENDBRANCH   1  27
TORSDOF 13
REMARK  Name = ../refined-set-2016/1tjp/1tjp_pocket.pdb
REMARK  206 active torsions:
REMARK  status: ('A' for Active; 'I' for Inactive)
REMARK    1  A    between atoms: _1  and  _3
REMARK    2  A    between atoms: _3  and  _4
REMARK    3  A    between atoms: _3  and  _6
REMARK    4  A    between atoms: _10  and  _11
REMARK    5  A    between atoms: _16  and  _18
REMARK    6  A    between atoms: _18  and  _19
REMARK    7  A    between atoms: _18  and  _21
REMARK    8  A    between atoms: _21  and  _22
REMARK    9  A    between atoms: _28  and  _30
REMARK   10  A    between atoms: _30  and  _31
REMARK   11  A    between atoms: _30  and  _33
REMARK   12  A    between atoms: _36  and  _38
REMARK   13  A    between atoms: _38  and  _39
REMARK   14  A    between atoms: _38  and  _41
REMARK   15  A    between atoms: _41  and  _42
REMARK   16  A    between atoms: _45  and  _47
REMARK   17  A    between atoms: _47  and  _48
REMARK   18  A    between atoms: _47  and  _50
REMARK   19  A    between atoms: _50  and  _51
REMARK   20  A    between atoms: _51  and  _52
REMARK   21  A    between atoms: _55  and  _57
REMARK   22  A    between atoms: _57  and  _58
REMARK   23  A    between atoms: _57  and  _60
REMARK   24  A    between atoms: _60  and  _61
REMARK   25  A    between atoms: _64  and  _66
REMARK   26  A    between atoms: _66  and  _67
REMARK   27  A    between atoms: _70  and  _71
REMARK   28  A    between atoms: _76  and  _78
REMARK   29  A    between atoms: _78  and  _79
REMARK   30  A    between atoms: _78  and  _81
REMARK   31  A    between atoms: _81  and  _82
REMARK   32  A    between atoms: _85  and  _87
REMARK   33  A    between atoms: _87  and  _88
REMARK   34  A    between atoms: _91  and  _93
REMARK   35  A    between atoms: _93  and  _94
REMARK   36  A    between atoms: _93  and  _96
REMARK   37  A    between atoms: _96  and  _97
REMARK   38  A    between atoms: _100  and  _102
REMARK   39  A    between atoms: _102  and  _103
REMARK   40  A    between atoms: _105  and  _107
REMARK   41  A    between atoms: _107  and  _108
REMARK   42  A    between atoms: _107  and  _110
REMARK   43  A    between atoms: _110  and  _111
REMARK   44  A    between atoms: _114  and  _116
REMARK   45  A    between atoms: _116  and  _117
REMARK   46  A    between atoms: _116  and  _119
REMARK   47  A    between atoms: _119  and  _120
REMARK   48  A    between atoms: _123  and  _125
REMARK   49  A    between atoms: _125  and  _126
REMARK   50  A    between atoms: _125  and  _128
REMARK   51  A    between atoms: _128  and  _129
REMARK   52  A    between atoms: _129  and  _130
REMARK   53  A    between atoms: _135  and  _137
REMARK   54  A    between atoms: _137  and  _138
REMARK   55  A    between atoms: _137  and  _140
REMARK   56  A    between atoms: _140  and  _141
REMARK   57  A    between atoms: _146  and  _148
REMARK   58  A    between atoms: _148  and  _149
REMARK   59  A    between atoms: _148  and  _151
REMARK   60  A    between atoms: _151  and  _152
REMARK   61  A    between atoms: _155  and  _157
REMARK   62  A    between atoms: _157  and  _158
REMARK   63  A    between atoms: _157  and  _160
REMARK   64  A    between atoms: _160  and  _161
REMARK   65  A    between atoms: _164  and  _166
REMARK   66  A    between atoms: _166  and  _167
REMARK   67  A    between atoms: _166  and  _169
REMARK   68  A    between atoms: _169  and  _170
REMARK   69  A    between atoms: _170  and  _171
REMARK   70  A    between atoms: _173  and  _175
REMARK   71  A    between atoms: _175  and  _176
REMARK   72  A    between atoms: _175  and  _178
REMARK   73  A    between atoms: _178  and  _179
REMARK   74  A    between atoms: _184  and  _185
REMARK   75  A    between atoms: _187  and  _189
REMARK   76  A    between atoms: _189  and  _190
REMARK   77  A    between atoms: _189  and  _192
REMARK   78  A    between atoms: _192  and  _193
REMARK   79  A    between atoms: _196  and  _198
REMARK   80  A    between atoms: _198  and  _199
REMARK   81  A    between atoms: _198  and  _201
REMARK   82  A    between atoms: _204  and  _206
REMARK   83  A    between atoms: _206  and  _207
REMARK   84  A    between atoms: _210  and  _212
REMARK   85  A    between atoms: _212  and  _213
REMARK   86  A    between atoms: _212  and  _215
REMARK   87  A    between atoms: _215  and  _216
REMARK   88  A    between atoms: _219  and  _221
REMARK   89  A    between atoms: _221  and  _222
REMARK   90  A    between atoms: _221  and  _224
REMARK   91  A    between atoms: _224  and  _225
REMARK   92  A    between atoms: _228  and  _230
REMARK   93  A    between atoms: _230  and  _231
REMARK   94  A    between atoms: _230  and  _233
REMARK   95  A    between atoms: _233  and  _234
REMARK   96  A    between atoms: _239  and  _240
REMARK   97  A    between atoms: _242  and  _244
REMARK   98  A    between atoms: _244  and  _245
REMARK   99  A    between atoms: _244  and  _247
REMARK  100  A    between atoms: _247  and  _248
REMARK  101  A    between atoms: _253  and  _254
REMARK  102  A    between atoms: _256  and  _258
REMARK  103  A    between atoms: _258  and  _259
REMARK  104  A    between atoms: _258  and  _261
REMARK  105  A    between atoms: _261  and  _262
REMARK  106  A    between atoms: _265  and  _267
REMARK  107  A    between atoms: _267  and  _268
REMARK  108  A    between atoms: _267  and  _270
REMARK  109  A    between atoms: _270  and  _271
REMARK  110  A    between atoms: _273  and  _275
REMARK  111  A    between atoms: _275  and  _276
REMARK  112  A    between atoms: _275  and  _278
REMARK  113  A    between atoms: _278  and  _279
REMARK  114  A    between atoms: _279  and  _280
REMARK  115  A    between atoms: _280  and  _281
REMARK  116  A    between atoms: _290  and  _292
REMARK  117  A    between atoms: _292  and  _293
REMARK  118  A    between atoms: _295  and  _297
REMARK  119  A    between atoms: _297  and  _298
REMARK  120  A    between atoms: _297  and  _300
REMARK  121  A    between atoms: _303  and  _305
REMARK  122  A    between atoms: _305  and  _306
REMARK  123  A    between atoms: _305  and  _308
REMARK  124  A    between atoms: _308  and  _309
REMARK  125  A    between atoms: _312  and  _314
REMARK  126  A    between atoms: _314  and  _315
REMARK  127  A    between atoms: _317  and  _319
REMARK  128  A    between atoms: _319  and  _320
REMARK  129  A    between atoms: _323  and  _325
REMARK  130  A    between atoms: _325  and  _326
REMARK  131  A    between atoms: _325  and  _328
REMARK  132  A    between atoms: _328  and  _329
REMARK  133  A    between atoms: _329  and  _330
REMARK  134  A    between atoms: _333  and  _335
REMARK  135  A    between atoms: _335  and  _336
REMARK  136  A    between atoms: _335  and  _338
REMARK  137  A    between atoms: _338  and  _339
REMARK  138  A    between atoms: _344  and  _346
REMARK  139  A    between atoms: _346  and  _347
REMARK  140  A    between atoms: _346  and  _349
REMARK  141  A    between atoms: _349  and  _350
REMARK  142  A    between atoms: _350  and  _351
REMARK  143  A    between atoms: _351  and  _352
REMARK  144  A    between atoms: _361  and  _363
REMARK  145  A    between atoms: _363  and  _364
REMARK  146  A    between atoms: _366  and  _368
REMARK  147  A    between atoms: _368  and  _369
REMARK  148  A    between atoms: _368  and  _371
REMARK  149  A    between atoms: _371  and  _372
REMARK  150  A    between atoms: _375  and  _377
REMARK  151  A    between atoms: _377  and  _378
REMARK  152  A    between atoms: _377  and  _380
REMARK  153  A    between atoms: _380  and  _381
REMARK  154  A    between atoms: _381  and  _382
REMARK  155  A    between atoms: _387  and  _389
REMARK  156  A    between atoms: _389  and  _390
REMARK  157  A    between atoms: _392  and  _394
REMARK  158  A    between atoms: _394  and  _395
REMARK  159  A    between atoms: _394  and  _397
REMARK  160  A    between atoms: _397  and  _398
REMARK  161  A    between atoms: _404  and  _406
REMARK  162  A    between atoms: _406  and  _407
REMARK  163  A    between atoms: _409  and  _411
REMARK  164  A    between atoms: _411  and  _412
REMARK  165  A    between atoms: _411  and  _414
REMARK  166  A    between atoms: _414  and  _415
REMARK  167  A    between atoms: _418  and  _420
REMARK  168  A    between atoms: _420  and  _421
REMARK  169  A    between atoms: _420  and  _423
REMARK  170  A    between atoms: _423  and  _424
REMARK  171  A    between atoms: _426  and  _428
REMARK  172  A    between atoms: _428  and  _429
REMARK  173  A    between atoms: _428  and  _431
REMARK  174  A    between atoms: _431  and  _432
REMARK  175  A    between atoms: _432  and  _433
REMARK  176  A    between atoms: _438  and  _440
REMARK  177  A    between atoms: _440  and  _441
REMARK  178  A    between atoms: _440  and  _443
REMARK  179  A    between atoms: _443  and  _444
REMARK  180  A    between atoms: _447  and  _449
REMARK  181  A    between atoms: _449  and  _450
REMARK  182  A    between atoms: _449  and  _452
REMARK  183  A    between atoms: _452  and  _453
REMARK  184  A    between atoms: _455  and  _457
REMARK  185  A    between atoms: _457  and  _458
REMARK  186  A    between atoms: _460  and  _462
REMARK  187  A    between atoms: _462  and  _463
REMARK  188  A    between atoms: _462  and  _465
REMARK  189  A    between atoms: _465  and  _466
REMARK  190  A    between atoms: _468  and  _470
REMARK  191  A    between atoms: _470  and  _471
REMARK  192  A    between atoms: _474  and  _476
REMARK  193  A    between atoms: _476  and  _477
REMARK  194  A    between atoms: _476  and  _479
REMARK  195  A    between atoms: _479  and  _480
REMARK  196  A    between atoms: _483  and  _485
REMARK  197  A    between atoms: _485  and  _486
REMARK  198  A    between atoms: _485  and  _488
REMARK  199  A    between atoms: _491  and  _493
REMARK  200  A    between atoms: _493  and  _494
REMARK  201  A    between atoms: _493  and  _496
REMARK  202  A    between atoms: _496  and  _497
REMARK  203  A    between atoms: _497  and  _498
REMARK  204  A    between atoms: _498  and  _499
REMARK  205  A    between atoms: _499  and  _500
REMARK  206  A    between atoms: _505  and  _506
REMARK                            x       y       z     vdW  Elec       q    Type
REMARK                         _______ _______ _______ _____ _____    ______ ____
ROOT
ATOM      1  CB  ASN A   1      59.434  32.905  17.268  0.00  0.00    +0.110 C 
ENDROOT
BRANCH   1   2
ATOM      2  CG  ASN A   1      58.270  31.951  17.541  0.00  0.00    +0.221 C 
ATOM      3  ND2 ASN A   1      58.156  31.532  18.757  0.00  0.00    -0.329 N 
ATOM      4 HD21 ASN A   1      58.829  31.853  19.483  0.00  0.00    +0.145 HD
ATOM      5 HD22 ASN A   1      57.392  30.874  19.011  0.00  0.00    +0.145 HD
ATOM      6  OD1 ASN A   1      57.484  31.596  16.621  0.00  0.00    -0.275 OA
ENDBRANCH   1   2
BRANCH   1   7
ATOM      7  CA  ASN A   1      59.047  34.385  17.473  0.00  0.00    +0.142 C 
BRANCH   7   8
ATOM      8  N   ASN A   1      58.237  34.853  16.361  0.00  0.00    -0.239 NA
ATOM      9  H   ASN A   1      58.068  34.237  15.541  0.00  0.00    +0.142 HD
ENDBRANCH   7   8
BRANCH   7  10
ATOM     10  C   ASN A   1      60.318  35.245  17.564  0.00  0.00    +0.225 C 
ATOM     11  O   ASN A   1      60.725  35.608  18.659  0.00  0.00    -0.287 OA
ENDBRANCH   7  10
ENDBRANCH   1   7
TORSDOF 4
REMARK  Name = ../refined-set-2016/1tjp/1tjp_pocket.pdb
REMARK  206 active torsions:
REMARK  status: ('A' for Active; 'I' for Inactive)
REMARK    1  A    between atoms: _1  and  _3
REMARK    2  A    between atoms: _3  and  _4
REMARK    3  A    between atoms: _3  and  _6
REMARK    4  A    between atoms: _10  and  _11
REMARK    5  A    between atoms: _16  and  _18
REMARK    6  A    between atoms: _18  and  _19
REMARK    7  A    between atoms: _18  and  _21
REMARK    8  A    between atoms: _21  and  _22
REMARK    9  A    between atoms: _28  and  _30
REMARK   10  A    between atoms: _30  and  _31
REMARK   11  A    between atoms: _30  and  _33
REMARK   12  A    between atoms: _36  and  _38
REMARK   13  A    between atoms: _38  and  _39
REMARK   14  A    between atoms: _38  and  _41
REMARK   15  A    between atoms: _41  and  _42
REMARK   16  A    between atoms: _45  and  _47
REMARK   17  A    between atoms: _47  and  _48
REMARK   18  A    between atoms: _47  and  _50
REMARK   19  A    between atoms: _50  and  _51
REMARK   20  A    between atoms: _51  and  _52
REMARK   21  A    between atoms: _55  and  _57
REMARK   22  A    between atoms: _57  and  _58
REMARK   23  A    between atoms: _57  and  _60
REMARK   24  A    between atoms: _60  and  _61
REMARK   25  A    between atoms: _64  and  _66
REMARK   26  A    between atoms: _66  and  _67
REMARK   27  A    between atoms: _70  and  _71
REMARK   28  A    between atoms: _76  and  _78
REMARK   29  A    between atoms: _78  and  _79
REMARK   30  A    between atoms: _78  and  _81
REMARK   31  A    between atoms: _81  and  _82
REMARK   32  A    between atoms: _85  and  _87
REMARK   33  A    between atoms: _87  and  _88
REMARK   34  A    between atoms: _91  and  _93
REMARK   35  A    between atoms: _93  and  _94
REMARK   36  A    between atoms: _93  and  _96
REMARK   37  A    between atoms: _96  and  _97
REMARK   38  A    between atoms: _100  and  _102
REMARK   39  A    between atoms: _102  and  _103
REMARK   40  A    between atoms: _105  and  _107
REMARK   41  A    between atoms: _107  and  _108
REMARK   42  A    between atoms: _107  and  _110
REMARK   43  A    between atoms: _110  and  _111
REMARK   44  A    between atoms: _114  and  _116
REMARK   45  A    between atoms: _116  and  _117
REMARK   46  A    between atoms: _116  and  _119
REMARK   47  A    between atoms: _119  and  _120
REMARK   48  A    between atoms: _123  and  _125
REMARK   49  A    between atoms: _125  and  _126
REMARK   50  A    between atoms: _125  and  _128
REMARK   51  A    between atoms: _128  and  _129
REMARK   52  A    between atoms: _129  and  _130
REMARK   53  A    between atoms: _135  and  _137
REMARK   54  A    between atoms: _137  and  _138
REMARK   55  A    between atoms: _137  and  _140
REMARK   56  A    between atoms: _140  and  _141
REMARK   57  A    between atoms: _146  and  _148
REMARK   58  A    between atoms: _148  and  _149
REMARK   59  A    between atoms: _148  and  _151
REMARK   60  A    between atoms: _151  and  _152
REMARK   61  A    between atoms: _155  and  _157
REMARK   62  A    between atoms: _157  and  _158
REMARK   63  A    between atoms: _157  and  _160
REMARK   64  A    between atoms: _160  and  _161
REMARK   65  A    between atoms: _164  and  _166
REMARK   66  A    between atoms: _166  and  _167
REMARK   67  A    between atoms: _166  and  _169
REMARK   68  A    between atoms: _169  and  _170
REMARK   69  A    between atoms: _170  and  _171
REMARK   70  A    between atoms: _173  and  _175
REMARK   71  A    between atoms: _175  and  _176
REMARK   72  A    between atoms: _175  and  _178
REMARK   73  A    between atoms: _178  and  _179
REMARK   74  A    between atoms: _184  and  _185
REMARK   75  A    between atoms: _187  and  _189
REMARK   76  A    between atoms: _189  and  _190
REMARK   77  A    between atoms: _189  and  _192
REMARK   78  A    between atoms: _192  and  _193
REMARK   79  A    between atoms: _196  and  _198
REMARK   80  A    between atoms: _198  and  _199
REMARK   81  A    between atoms: _198  and  _201
REMARK   82  A    between atoms: _204  and  _206
REMARK   83  A    between atoms: _206  and  _207
REMARK   84  A    between atoms: _210  and  _212
REMARK   85  A    between atoms: _212  and  _213
REMARK   86  A    between atoms: _212  and  _215
REMARK   87  A    between atoms: _215  and  _216
REMARK   88  A    between atoms: _219  and  _221
REMARK   89  A    between atoms: _221  and  _222
REMARK   90  A    between atoms: _221  and  _224
REMARK   91  A    between atoms: _224  and  _225
REMARK   92  A    between atoms: _228  and  _230
REMARK   93  A    between atoms: _230  and  _231
REMARK   94  A    between atoms: _230  and  _233
REMARK   95  A    between atoms: _233  and  _234
REMARK   96  A    between atoms: _239  and  _240
REMARK   97  A    between atoms: _242  and  _244
REMARK   98  A    between atoms: _244  and  _245
REMARK   99  A    between atoms: _244  and  _247
REMARK  100  A    between atoms: _247  and  _248
REMARK  101  A    between atoms: _253  and  _254
REMARK  102  A    between atoms: _256  and  _258
REMARK  103  A    between atoms: _258  and  _259
REMARK  104  A    between atoms: _258  and  _261
REMARK  105  A    between atoms: _261  and  _262
REMARK  106  A    between atoms: _265  and  _267
REMARK  107  A    between atoms: _267  and  _268
REMARK  108  A    between atoms: _267  and  _270
REMARK  109  A    between atoms: _270  and  _271
REMARK  110  A    between atoms: _273  and  _275
REMARK  111  A    between atoms: _275  and  _276
REMARK  112  A    between atoms: _275  and  _278
REMARK  113  A    between atoms: _278  and  _279
REMARK  114  A    between atoms: _279  and  _280
REMARK  115  A    between atoms: _280  and  _281
REMARK  116  A    between atoms: _290  and  _292
REMARK  117  A    between atoms: _292  and  _293
REMARK  118  A    between atoms: _295  and  _297
REMARK  119  A    between atoms: _297  and  _298
REMARK  120  A    between atoms: _297  and  _300
REMARK  121  A    between atoms: _303  and  _305
REMARK  122  A    between atoms: _305  and  _306
REMARK  123  A    between atoms: _305  and  _308
REMARK  124  A    between atoms: _308  and  _309
REMARK  125  A    between atoms: _312  and  _314
REMARK  126  A    between atoms: _314  and  _315
REMARK  127  A    between atoms: _317  and  _319
REMARK  128  A    between atoms: _319  and  _320
REMARK  129  A    between atoms: _323  and  _325
REMARK  130  A    between atoms: _325  and  _326
REMARK  131  A    between atoms: _325  and  _328
REMARK  132  A    between atoms: _328  and  _329
REMARK  133  A    between atoms: _329  and  _330
REMARK  134  A    between atoms: _333  and  _335
REMARK  135  A    between atoms: _335  and  _336
REMARK  136  A    between atoms: _335  and  _338
REMARK  137  A    between atoms: _338  and  _339
REMARK  138  A    between atoms: _344  and  _346
REMARK  139  A    between atoms: _346  and  _347
REMARK  140  A    between atoms: _346  and  _349
REMARK  141  A    between atoms: _349  and  _350
REMARK  142  A    between atoms: _350  and  _351
REMARK  143  A    between atoms: _351  and  _352
REMARK  144  A    between atoms: _361  and  _363
REMARK  145  A    between atoms: _363  and  _364
REMARK  146  A    between atoms: _366  and  _368
REMARK  147  A    between atoms: _368  and  _369
REMARK  148  A    between atoms: _368  and  _371
REMARK  149  A    between atoms: _371  and  _372
REMARK  150  A    between atoms: _375  and  _377
REMARK  151  A    between atoms: _377  and  _378
REMARK  152  A    between atoms: _377  and  _380
REMARK  153  A    between atoms: _380  and  _381
REMARK  154  A    between atoms: _381  and  _382
REMARK  155  A    between atoms: _387  and  _389
REMARK  156  A    between atoms: _389  and  _390
REMARK  157  A    between atoms: _392  and  _394
REMARK  158  A    between atoms: _394  and  _395
REMARK  159  A    between atoms: _394  and  _397
REMARK  160  A    between atoms: _397  and  _398
REMARK  161  A    between atoms: _404  and  _406
REMARK  162  A    between atoms: _406  and  _407
REMARK  163  A    between atoms: _409  and  _411
REMARK  164  A    between atoms: _411  and  _412
REMARK  165  A    between atoms: _411  and  _414
REMARK  166  A    between atoms: _414  and  _415
REMARK  167  A    between atoms: _418  and  _420
REMARK  168  A    between atoms: _420  and  _421
REMARK  169  A    between atoms: _420  and  _423
REMARK  170  A    between atoms: _423  and  _424
REMARK  171  A    between atoms: _426  and  _428
REMARK  172  A    between atoms: _428  and  _429
REMARK  173  A    between atoms: _428  and  _431
REMARK  174  A    between atoms: _431  and  _432
REMARK  175  A    between atoms: _432  and  _433
REMARK  176  A    between atoms: _438  and  _440
REMARK  177  A    between atoms: _440  and  _441
REMARK  178  A    between atoms: _440  and  _443
REMARK  179  A    between atoms: _443  and  _444
REMARK  180  A    between atoms: _447  and  _449
REMARK  181  A    between atoms: _449  and  _450
REMARK  182  A    between atoms: _449  and  _452
REMARK  183  A    between atoms: _452  and  _453
REMARK  184  A    between atoms: _455  and  _457
REMARK  185  A    between atoms: _457  and  _458
REMARK  186  A    between atoms: _460  and  _462
REMARK  187  A    between atoms: _462  and  _463
REMARK  188  A    between atoms: _462  and  _465
REMARK  189  A    between atoms: _465  and  _466
REMARK  190  A    between atoms: _468  and  _470
REMARK  191  A    between atoms: _470  and  _471
REMARK  192  A    between atoms: _474  and  _476
REMARK  193  A    between atoms: _476  and  _477
REMARK  194  A    between atoms: _476  and  _479
REMARK  195  A    between atoms: _479  and  _480
REMARK  196  A    between atoms: _483  and  _485
REMARK  197  A    between atoms: _485  and  _486
REMARK  198  A    between atoms: _485  and  _488
REMARK  199  A    between atoms: _491  and  _493
REMARK  200  A    between atoms: _493  and  _494
REMARK  201  A    between atoms: _493  and  _496
REMARK  202  A    between atoms: _496  and  _497
REMARK  203  A    between atoms: _497  and  _498
REMARK  204  A    between atoms: _498  and  _499
REMARK  205  A    between atoms: _499  and  _500
REMARK  206  A    between atoms: _505  and  _506
REMARK                            x       y       z     vdW  Elec       q    Type
REMARK                         _______ _______ _______ _____ _____    ______ ____
ROOT
ATOM      1  CA  MET A   3      54.110  24.987  22.750  0.00  0.00    +0.149 C 
ENDROOT
BRANCH   1   3
ATOM      2  C   LEU A   2      52.362  26.445  21.800  0.00  0.00    +0.241 C 
ATOM      3  N   MET A   3      52.803  25.225  22.163  0.00  0.00    -0.297 N 
ATOM      4  H   MET A   3      52.174  24.410  22.015  0.00  0.00    +0.150 HD
ATOM      5  O   LEU A   2      53.046  27.452  21.935  0.00  0.00    -0.273 OA
BRANCH   2   6
ATOM      6  CA  LEU A   2      50.938  26.534  21.265  0.00  0.00    +0.149 C 
BRANCH   6   9
ATOM      7  C   LEU A   1      49.283  26.694  23.073  0.00  0.00    +0.238 C 
ATOM      8  O   LEU A   1      48.794  25.551  22.884  0.00  0.00    -0.274 OA
ATOM      9  N   LEU A   2      50.205  27.253  22.300  0.00  0.00    -0.297 N 
ATOM     10  H   LEU A   2      50.417  28.261  22.440  0.00  0.00    +0.150 HD
BRANCH   7  11
ATOM     11  CA  LEU A   1      48.773  27.577  24.208  0.00  0.00    +0.145 C 
BRANCH  11  12
ATOM     12  N   LEU A   1      47.355  27.266  24.526  0.00  0.00    -0.238 NA
ATOM     13  H   LEU A   1      47.134  26.410  25.073  0.00  0.00    +0.142 HD
ENDBRANCH  11  12
BRANCH  11  14
ATOM     14  CB  LEU A   1      49.674  27.284  25.412  0.00  0.00    +0.026 C 
BRANCH  14  15
ATOM     15  CG  LEU A   1      49.302  28.046  26.687  0.00  0.00    +0.002 C 
ATOM     16  CD2 LEU A   1      50.375  27.809  27.767  0.00  0.00    +0.000 C 
ATOM     17  CD1 LEU A   1      49.233  29.564  26.335  0.00  0.00    +0.000 C 
ENDBRANCH  14  15
ENDBRANCH  11  14
ENDBRANCH   7  11
ENDBRANCH   6   9
BRANCH   6  18
ATOM     18  CB  LEU A   2      50.875  27.274  19.914  0.00  0.00    +0.029 C 
BRANCH  18  19
ATOM     19  CG  LEU A   2      51.552  26.590  18.708  0.00  0.00    +0.002 C 
ATOM     20  CD2 LEU A   2      53.098  26.608  18.809  0.00  0.00    +0.000 C 
ATOM     21  CD1 LEU A   2      51.042  25.194  18.595  0.00  0.00    +0.000 C 
ENDBRANCH  18  19
ENDBRANCH   6  18
ENDBRANCH   2   6
ENDBRANCH   1   3
BRANCH   1  22
ATOM     22  C   MET A   3      54.913  24.048  21.887  0.00  0.00    +0.241 C 
ATOM     23  N   TYR A   4      56.193  24.013  22.188  0.00  0.00    -0.298 N 
ATOM     24  H   TYR A   4      56.554  24.685  22.895  0.00  0.00    +0.150 HD
ATOM     25  O   MET A   3      54.382  23.326  21.052  0.00  0.00    -0.273 OA
BRANCH  23  26
ATOM     26  CA  TYR A   4      57.124  23.082  21.581  0.00  0.00    +0.141 C 
BRANCH  26  27
ATOM     27  C   TYR A   4      57.596  22.283  22.791  0.00  0.00    +0.227 C 
ATOM     28  O   TYR A   4      57.741  22.823  23.891  0.00  0.00    -0.286 OA
ENDBRANCH  26  27
BRANCH  26  29
ATOM     29  CB  TYR A   4      58.254  23.818  20.859  0.00  0.00    +0.054 C 
BRANCH  29  30
ATOM     30  CG  TYR A   4      57.841  24.199  19.451  0.00  0.00    -0.020 A 
ATOM     31  CD2 TYR A   4      57.317  25.461  19.175  0.00  0.00    -0.001 A 
ATOM     32  CE2 TYR A   4      56.863  25.793  17.895  0.00  0.00    +0.036 A 
ATOM     33  CZ  TYR A   4      56.935  24.855  16.876  0.00  0.00    +0.134 A 
ATOM     34  CE1 TYR A   4      57.452  23.593  17.124  0.00  0.00    +0.036 A 
ATOM     35  CD1 TYR A   4      57.903  23.272  18.408  0.00  0.00    -0.001 A 
BRANCH  33  36
ATOM     36  OH  TYR A   4      56.509  25.185  15.605  0.00  0.00    -0.506 OA
ATOM     37  HH  TYR A   4      57.042  25.948  15.268  0.00  0.00    +0.292 HD
ENDBRANCH  33  36
ENDBRANCH  29  30
ENDBRANCH  26  29
ENDBRANCH  23  26
ENDBRANCH   1  22
BRANCH   1  38
ATOM     38  CB  MET A   3      53.922  24.280  24.123  0.00  0.00    +0.041 C 
BRANCH  38  39
ATOM     39  CG  MET A   3      53.052  25.015  25.114  0.00  0.00    +0.060 C 
BRANCH  39  40
ATOM     40  SD  MET A   3      53.702  26.681  25.502  0.00  0.00    -0.139 S 
ATOM     41  CE  MET A   3      55.398  26.289  25.977  0.00  0.00    +0.069 C 
ENDBRANCH  39  40
ENDBRANCH  38  39
ENDBRANCH   1  38
TORSDOF 18
REMARK  Name = ../refined-set-2016/1tjp/1tjp_pocket.pdb
REMARK  206 active torsions:
REMARK  status: ('A' for Active; 'I' for Inactive)
REMARK    1  A    between atoms: _1  and  _3
REMARK    2  A    between atoms: _3  and  _4
REMARK    3  A    between atoms: _3  and  _6
REMARK    4  A    between atoms: _10  and  _11
REMARK    5  A    between atoms: _16  and  _18
REMARK    6  A    between atoms: _18  and  _19
REMARK    7  A    between atoms: _18  and  _21
REMARK    8  A    between atoms: _21  and  _22
REMARK    9  A    between atoms: _28  and  _30
REMARK   10  A    between atoms: _30  and  _31
REMARK   11  A    between atoms: _30  and  _33
REMARK   12  A    between atoms: _36  and  _38
REMARK   13  A    between atoms: _38  and  _39
REMARK   14  A    between atoms: _38  and  _41
REMARK   15  A    between atoms: _41  and  _42
REMARK   16  A    between atoms: _45  and  _47
REMARK   17  A    between atoms: _47  and  _48
REMARK   18  A    between atoms: _47  and  _50
REMARK   19  A    between atoms: _50  and  _51
REMARK   20  A    between atoms: _51  and  _52
REMARK   21  A    between atoms: _55  and  _57
REMARK   22  A    between atoms: _57  and  _58
REMARK   23  A    between atoms: _57  and  _60
REMARK   24  A    between atoms: _60  and  _61
REMARK   25  A    between atoms: _64  and  _66
REMARK   26  A    between atoms: _66  and  _67
REMARK   27  A    between atoms: _70  and  _71
REMARK   28  A    between atoms: _76  and  _78
REMARK   29  A    between atoms: _78  and  _79
REMARK   30  A    between atoms: _78  and  _81
REMARK   31  A    between atoms: _81  and  _82
REMARK   32  A    between atoms: _85  and  _87
REMARK   33  A    between atoms: _87  and  _88
REMARK   34  A    between atoms: _91  and  _93
REMARK   35  A    between atoms: _93  and  _94
REMARK   36  A    between atoms: _93  and  _96
REMARK   37  A    between atoms: _96  and  _97
REMARK   38  A    between atoms: _100  and  _102
REMARK   39  A    between atoms: _102  and  _103
REMARK   40  A    between atoms: _105  and  _107
REMARK   41  A    between atoms: _107  and  _108
REMARK   42  A    between atoms: _107  and  _110
REMARK   43  A    between atoms: _110  and  _111
REMARK   44  A    between atoms: _114  and  _116
REMARK   45  A    between atoms: _116  and  _117
REMARK   46  A    between atoms: _116  and  _119
REMARK   47  A    between atoms: _119  and  _120
REMARK   48  A    between atoms: _123  and  _125
REMARK   49  A    between atoms: _125  and  _126
REMARK   50  A    between atoms: _125  and  _128
REMARK   51  A    between atoms: _128  and  _129
REMARK   52  A    between atoms: _129  and  _130
REMARK   53  A    between atoms: _135  and  _137
REMARK   54  A    between atoms: _137  and  _138
REMARK   55  A    between atoms: _137  and  _140
REMARK   56  A    between atoms: _140  and  _141
REMARK   57  A    between atoms: _146  and  _148
REMARK   58  A    between atoms: _148  and  _149
REMARK   59  A    between atoms: _148  and  _151
REMARK   60  A    between atoms: _151  and  _152
REMARK   61  A    between atoms: _155  and  _157
REMARK   62  A    between atoms: _157  and  _158
REMARK   63  A    between atoms: _157  and  _160
REMARK   64  A    between atoms: _160  and  _161
REMARK   65  A    between atoms: _164  and  _166
REMARK   66  A    between atoms: _166  and  _167
REMARK   67  A    between atoms: _166  and  _169
REMARK   68  A    between atoms: _169  and  _170
REMARK   69  A    between atoms: _170  and  _171
REMARK   70  A    between atoms: _173  and  _175
REMARK   71  A    between atoms: _175  and  _176
REMARK   72  A    between atoms: _175  and  _178
REMARK   73  A    between atoms: _178  and  _179
REMARK   74  A    between atoms: _184  and  _185
REMARK   75  A    between atoms: _187  and  _189
REMARK   76  A    between atoms: _189  and  _190
REMARK   77  A    between atoms: _189  and  _192
REMARK   78  A    between atoms: _192  and  _193
REMARK   79  A    between atoms: _196  and  _198
REMARK   80  A    between atoms: _198  and  _199
REMARK   81  A    between atoms: _198  and  _201
REMARK   82  A    between atoms: _204  and  _206
REMARK   83  A    between atoms: _206  and  _207
REMARK   84  A    between atoms: _210  and  _212
REMARK   85  A    between atoms: _212  and  _213
REMARK   86  A    between atoms: _212  and  _215
REMARK   87  A    between atoms: _215  and  _216
REMARK   88  A    between atoms: _219  and  _221
REMARK   89  A    between atoms: _221  and  _222
REMARK   90  A    between atoms: _221  and  _224
REMARK   91  A    between atoms: _224  and  _225
REMARK   92  A    between atoms: _228  and  _230
REMARK   93  A    between atoms: _230  and  _231
REMARK   94  A    between atoms: _230  and  _233
REMARK   95  A    between atoms: _233  and  _234
REMARK   96  A    between atoms: _239  and  _240
REMARK   97  A    between atoms: _242  and  _244
REMARK   98  A    between atoms: _244  and  _245
REMARK   99  A    between atoms: _244  and  _247
REMARK  100  A    between atoms: _247  and  _248
REMARK  101  A    between atoms: _253  and  _254
REMARK  102  A    between atoms: _256  and  _258
REMARK  103  A    between atoms: _258  and  _259
REMARK  104  A    between atoms: _258  and  _261
REMARK  105  A    between atoms: _261  and  _262
REMARK  106  A    between atoms: _265  and  _267
REMARK  107  A    between atoms: _267  and  _268
REMARK  108  A    between atoms: _267  and  _270
REMARK  109  A    between atoms: _270  and  _271
REMARK  110  A    between atoms: _273  and  _275
REMARK  111  A    between atoms: _275  and  _276
REMARK  112  A    between atoms: _275  and  _278
REMARK  113  A    between atoms: _278  and  _279
REMARK  114  A    between atoms: _279  and  _280
REMARK  115  A    between atoms: _280  and  _281
REMARK  116  A    between atoms: _290  and  _292
REMARK  117  A    between atoms: _292  and  _293
REMARK  118  A    between atoms: _295  and  _297
REMARK  119  A    between atoms: _297  and  _298
REMARK  120  A    between atoms: _297  and  _300
REMARK  121  A    between atoms: _303  and  _305
REMARK  122  A    between atoms: _305  and  _306
REMARK  123  A    between atoms: _305  and  _308
REMARK  124  A    between atoms: _308  and  _309
REMARK  125  A    between atoms: _312  and  _314
REMARK  126  A    between atoms: _314  and  _315
REMARK  127  A    between atoms: _317  and  _319
REMARK  128  A    between atoms: _319  and  _320
REMARK  129  A    between atoms: _323  and  _325
REMARK  130  A    between atoms: _325  and  _326
REMARK  131  A    between atoms: _325  and  _328
REMARK  132  A    between atoms: _328  and  _329
REMARK  133  A    between atoms: _329  and  _330
REMARK  134  A    between atoms: _333  and  _335
REMARK  135  A    between atoms: _335  and  _336
REMARK  136  A    between atoms: _335  and  _338
REMARK  137  A    between atoms: _338  and  _339
REMARK  138  A    between atoms: _344  and  _346
REMARK  139  A    between atoms: _346  and  _347
REMARK  140  A    between atoms: _346  and  _349
REMARK  141  A    between atoms: _349  and  _350
REMARK  142  A    between atoms: _350  and  _351
REMARK  143  A    between atoms: _351  and  _352
REMARK  144  A    between atoms: _361  and  _363
REMARK  145  A    between atoms: _363  and  _364
REMARK  146  A    between atoms: _366  and  _368
REMARK  147  A    between atoms: _368  and  _369
REMARK  148  A    between atoms: _368  and  _371
REMARK  149  A    between atoms: _371  and  _372
REMARK  150  A    between atoms: _375  and  _377
REMARK  151  A    between atoms: _377  and  _378
REMARK  152  A    between atoms: _377  and  _380
REMARK  153  A    between atoms: _380  and  _381
REMARK  154  A    between atoms: _381  and  _382
REMARK  155  A    between atoms: _387  and  _389
REMARK  156  A    between atoms: _389  and  _390
REMARK  157  A    between atoms: _392  and  _394
REMARK  158  A    between atoms: _394  and  _395
REMARK  159  A    between atoms: _394  and  _397
REMARK  160  A    between atoms: _397  and  _398
REMARK  161  A    between atoms: _404  and  _406
REMARK  162  A    between atoms: _406  and  _407
REMARK  163  A    between atoms: _409  and  _411
REMARK  164  A    between atoms: _411  and  _412
REMARK  165  A    between atoms: _411  and  _414
REMARK  166  A    between atoms: _414  and  _415
REMARK  167  A    between atoms: _418  and  _420
REMARK  168  A    between atoms: _420  and  _421
REMARK  169  A    between atoms: _420  and  _423
REMARK  170  A    between atoms: _423  and  _424
REMARK  171  A    between atoms: _426  and  _428
REMARK  172  A    between atoms: _428  and  _429
REMARK  173  A    between atoms: _428  and  _431
REMARK  174  A    between atoms: _431  and  _432
REMARK  175  A    between atoms: _432  and  _433
REMARK  176  A    between atoms: _438  and  _440
REMARK  177  A    between atoms: _440  and  _441
REMARK  178  A    between atoms: _440  and  _443
REMARK  179  A    between atoms: _443  and  _444
REMARK  180  A    between atoms: _447  and  _449
REMARK  181  A    between atoms: _449  and  _450
REMARK  182  A    between atoms: _449  and  _452
REMARK  183  A    between atoms: _452  and  _453
REMARK  184  A    between atoms: _455  and  _457
REMARK  185  A    between atoms: _457  and  _458
REMARK  186  A    between atoms: _460  and  _462
REMARK  187  A    between atoms: _462  and  _463
REMARK  188  A    between atoms: _462  and  _465
REMARK  189  A    between atoms: _465  and  _466
REMARK  190  A    between atoms: _468  and  _470
REMARK  191  A    between atoms: _470  and  _471
REMARK  192  A    between atoms: _474  and  _476
REMARK  193  A    between atoms: _476  and  _477
REMARK  194  A    between atoms: _476  and  _479
REMARK  195  A    between atoms: _479  and  _480
REMARK  196  A    between atoms: _483  and  _485
REMARK  197  A    between atoms: _485  and  _486
REMARK  198  A    between atoms: _485  and  _488
REMARK  199  A    between atoms: _491  and  _493
REMARK  200  A    between atoms: _493  and  _494
REMARK  201  A    between atoms: _493  and  _496
REMARK  202  A    between atoms: _496  and  _497
REMARK  203  A    between atoms: _497  and  _498
REMARK  204  A    between atoms: _498  and  _499
REMARK  205  A    between atoms: _499  and  _500
REMARK  206  A    between atoms: _505  and  _506
REMARK                            x       y       z     vdW  Elec       q    Type
REMARK                         _______ _______ _______ _____ _____    ______ ____
ROOT
ATOM      1  C   VAL A   2      52.859  20.166  20.457  0.00  0.00    +0.241 C 
ATOM      2  O   VAL A   2      52.574  19.011  20.091  0.00  0.00    -0.273 OA
ATOM      3  N   ALA A   3      53.368  21.073  19.636  0.00  0.00    -0.297 N 
ATOM      4  H   ALA A   3      53.704  21.979  20.019  0.00  0.00    +0.150 HD
ENDROOT
BRANCH   3   5
ATOM      5  CA  ALA A   3      53.464  20.821  18.209  0.00  0.00    +0.149 C 
ATOM      6  CB  ALA A   3      53.940  22.101  17.503  0.00  0.00    +0.031 C 
BRANCH   5   7
ATOM      7  C   ALA A   3      54.301  19.632  17.776  0.00  0.00    +0.241 C 
ATOM      8  N   ASP A   4      55.375  19.363  18.507  0.00  0.00    -0.298 N 
ATOM      9  H   ASP A   4      55.584  19.939  19.347  0.00  0.00    +0.150 HD
ATOM     10  O   ALA A   3      53.968  19.017  16.743  0.00  0.00    -0.273 OA
BRANCH   8  11
ATOM     11  CA  ASP A   4      56.262  18.270  18.144  0.00  0.00    +0.148 C 
BRANCH  11  12
ATOM     12  C   ASP A   4      56.140  17.035  19.001  0.00  0.00    +0.227 C 
ATOM     13  O   ASP A   4      57.088  16.226  19.162  0.00  0.00    -0.286 OA
ENDBRANCH  11  12
BRANCH  11  14
ATOM     14  CB  ASP A   4      57.715  18.775  18.078  0.00  0.00    +0.142 C 
BRANCH  14  15
ATOM     15  CG  ASP A   4      58.183  19.471  19.362  0.00  0.00    +0.367 C 
ATOM     16  OD2 ASP A   4      57.359  19.848  20.226  0.00  0.00    -0.246 OA
ATOM     17  OD1 ASP A   4      59.403  19.675  19.543  0.00  0.00    -0.246 OA
ENDBRANCH  14  15
ENDBRANCH  11  14
ENDBRANCH   8  11
ENDBRANCH   5   7
ENDBRANCH   3   5
BRANCH   1  18
ATOM     18  CA  VAL A   2      52.595  20.647  21.871  0.00  0.00    +0.148 C 
BRANCH  18  20
ATOM     19  C   LEU A   1      50.461  21.903  21.875  0.00  0.00    +0.238 C 
ATOM     20  N   VAL A   2      51.114  20.735  21.949  0.00  0.00    -0.297 N 
ATOM     21  H   VAL A   2      50.565  19.860  22.065  0.00  0.00    +0.150 HD
ATOM     22  O   LEU A   1      51.053  22.966  21.843  0.00  0.00    -0.274 OA
BRANCH  19  23
ATOM     23  CA  LEU A   1      48.954  21.887  21.905  0.00  0.00    +0.145 C 
BRANCH  23  24
ATOM     24  N   LEU A   1      48.567  22.662  23.097  0.00  0.00    -0.238 NA
ATOM     25  H   LEU A   1      48.688  23.694  23.065  0.00  0.00    +0.142 HD
ENDBRANCH  23  24
BRANCH  23  26
ATOM     26  CB  LEU A   1      48.374  22.546  20.640  0.00  0.00    +0.026 C 
BRANCH  26  27
ATOM     27  CG  LEU A   1      48.873  21.898  19.337  0.00  0.00    +0.002 C 
ATOM     28  CD2 LEU A   1      48.752  20.381  19.323  0.00  0.00    +0.000 C 
ATOM     29  CD1 LEU A   1      48.054  22.534  18.188  0.00  0.00    +0.000 C 
ENDBRANCH  26  27
ENDBRANCH  23  26
ENDBRANCH  19  23
ENDBRANCH  18  20
BRANCH  18  30
ATOM     30  CB  VAL A   2      53.164  19.671  22.890  0.00  0.00    +0.027 C 
ATOM     31  CG2 VAL A   2      52.595  19.917  24.318  0.00  0.00    +0.002 C 
ATOM     32  CG1 VAL A   2      54.719  19.854  22.893  0.00  0.00    +0.002 C 
ENDBRANCH  18  30
ENDBRANCH   1  18
TORSDOF 13
REMARK  Name = ../refined-set-2016/1tjp/1tjp_pocket.pdb
REMARK  206 active torsions:
REMARK  status: ('A' for Active; 'I' for Inactive)
REMARK    1  A    between atoms: _1  and  _3
REMARK    2  A    between atoms: _3  and  _4
REMARK    3  A    between atoms: _3  and  _6
REMARK    4  A    between atoms: _10  and  _11
REMARK    5  A    between atoms: _16  and  _18
REMARK    6  A    between atoms: _18  and  _19
REMARK    7  A    between atoms: _18  and  _21
REMARK    8  A    between atoms: _21  and  _22
REMARK    9  A    between atoms: _28  and  _30
REMARK   10  A    between atoms: _30  and  _31
REMARK   11  A    between atoms: _30  and  _33
REMARK   12  A    between atoms: _36  and  _38
REMARK   13  A    between atoms: _38  and  _39
REMARK   14  A    between atoms: _38  and  _41
REMARK   15  A    between atoms: _41  and  _42
REMARK   16  A    between atoms: _45  and  _47
REMARK   17  A    between atoms: _47  and  _48
REMARK   18  A    between atoms: _47  and  _50
REMARK   19  A    between atoms: _50  and  _51
REMARK   20  A    between atoms: _51  and  _52
REMARK   21  A    between atoms: _55  and  _57
REMARK   22  A    between atoms: _57  and  _58
REMARK   23  A    between atoms: _57  and  _60
REMARK   24  A    between atoms: _60  and  _61
REMARK   25  A    between atoms: _64  and  _66
REMARK   26  A    between atoms: _66  and  _67
REMARK   27  A    between atoms: _70  and  _71
REMARK   28  A    between atoms: _76  and  _78
REMARK   29  A    between atoms: _78  and  _79
REMARK   30  A    between atoms: _78  and  _81
REMARK   31  A    between atoms: _81  and  _82
REMARK   32  A    between atoms: _85  and  _87
REMARK   33  A    between atoms: _87  and  _88
REMARK   34  A    between atoms: _91  and  _93
REMARK   35  A    between atoms: _93  and  _94
REMARK   36  A    between atoms: _93  and  _96
REMARK   37  A    between atoms: _96  and  _97
REMARK   38  A    between atoms: _100  and  _102
REMARK   39  A    between atoms: _102  and  _103
REMARK   40  A    between atoms: _105  and  _107
REMARK   41  A    between atoms: _107  and  _108
REMARK   42  A    between atoms: _107  and  _110
REMARK   43  A    between atoms: _110  and  _111
REMARK   44  A    between atoms: _114  and  _116
REMARK   45  A    between atoms: _116  and  _117
REMARK   46  A    between atoms: _116  and  _119
REMARK   47  A    between atoms: _119  and  _120
REMARK   48  A    between atoms: _123  and  _125
REMARK   49  A    between atoms: _125  and  _126
REMARK   50  A    between atoms: _125  and  _128
REMARK   51  A    between atoms: _128  and  _129
REMARK   52  A    between atoms: _129  and  _130
REMARK   53  A    between atoms: _135  and  _137
REMARK   54  A    between atoms: _137  and  _138
REMARK   55  A    between atoms: _137  and  _140
REMARK   56  A    between atoms: _140  and  _141
REMARK   57  A    between atoms: _146  and  _148
REMARK   58  A    between atoms: _148  and  _149
REMARK   59  A    between atoms: _148  and  _151
REMARK   60  A    between atoms: _151  and  _152
REMARK   61  A    between atoms: _155  and  _157
REMARK   62  A    between atoms: _157  and  _158
REMARK   63  A    between atoms: _157  and  _160
REMARK   64  A    between atoms: _160  and  _161
REMARK   65  A    between atoms: _164  and  _166
REMARK   66  A    between atoms: _166  and  _167
REMARK   67  A    between atoms: _166  and  _169
REMARK   68  A    between atoms: _169  and  _170
REMARK   69  A    between atoms: _170  and  _171
REMARK   70  A    between atoms: _173  and  _175
REMARK   71  A    between atoms: _175  and  _176
REMARK   72  A    between atoms: _175  and  _178
REMARK   73  A    between atoms: _178  and  _179
REMARK   74  A    between atoms: _184  and  _185
REMARK   75  A    between atoms: _187  and  _189
REMARK   76  A    between atoms: _189  and  _190
REMARK   77  A    between atoms: _189  and  _192
REMARK   78  A    between atoms: _192  and  _193
REMARK   79  A    between atoms: _196  and  _198
REMARK   80  A    between atoms: _198  and  _199
REMARK   81  A    between atoms: _198  and  _201
REMARK   82  A    between atoms: _204  and  _206
REMARK   83  A    between atoms: _206  and  _207
REMARK   84  A    between atoms: _210  and  _212
REMARK   85  A    between atoms: _212  and  _213
REMARK   86  A    between atoms: _212  and  _215
REMARK   87  A    between atoms: _215  and  _216
REMARK   88  A    between atoms: _219  and  _221
REMARK   89  A    between atoms: _221  and  _222
REMARK   90  A    between atoms: _221  and  _224
REMARK   91  A    between atoms: _224  and  _225
REMARK   92  A    between atoms: _228  and  _230
REMARK   93  A    between atoms: _230  and  _231
REMARK   94  A    between atoms: _230  and  _233
REMARK   95  A    between atoms: _233  and  _234
REMARK   96  A    between atoms: _239  and  _240
REMARK   97  A    between atoms: _242  and  _244
REMARK   98  A    between atoms: _244  and  _245
REMARK   99  A    between atoms: _244  and  _247
REMARK  100  A    between atoms: _247  and  _248
REMARK  101  A    between atoms: _253  and  _254
REMARK  102  A    between atoms: _256  and  _258
REMARK  103  A    between atoms: _258  and  _259
REMARK  104  A    between atoms: _258  and  _261
REMARK  105  A    between atoms: _261  and  _262
REMARK  106  A    between atoms: _265  and  _267
REMARK  107  A    between atoms: _267  and  _268
REMARK  108  A    between atoms: _267  and  _270
REMARK  109  A    between atoms: _270  and  _271
REMARK  110  A    between atoms: _273  and  _275
REMARK  111  A    between atoms: _275  and  _276
REMARK  112  A    between atoms: _275  and  _278
REMARK  113  A    between atoms: _278  and  _279
REMARK  114  A    between atoms: _279  and  _280
REMARK  115  A    between atoms: _280  and  _281
REMARK  116  A    between atoms: _290  and  _292
REMARK  117  A    between atoms: _292  and  _293
REMARK  118  A    between atoms: _295  and  _297
REMARK  119  A    between atoms: _297  and  _298
REMARK  120  A    between atoms: _297  and  _300
REMARK  121  A    between atoms: _303  and  _305
REMARK  122  A    between atoms: _305  and  _306
REMARK  123  A    between atoms: _305  and  _308
REMARK  124  A    between atoms: _308  and  _309
REMARK  125  A    between atoms: _312  and  _314
REMARK  126  A    between atoms: _314  and  _315
REMARK  127  A    between atoms: _317  and  _319
REMARK  128  A    between atoms: _319  and  _320
REMARK  129  A    between atoms: _323  and  _325
REMARK  130  A    between atoms: _325  and  _326
REMARK  131  A    between atoms: _325  and  _328
REMARK  132  A    between atoms: _328  and  _329
REMARK  133  A    between atoms: _329  and  _330
REMARK  134  A    between atoms: _333  and  _335
REMARK  135  A    between atoms: _335  and  _336
REMARK  136  A    between atoms: _335  and  _338
REMARK  137  A    between atoms: _338  and  _339
REMARK  138  A    between atoms: _344  and  _346
REMARK  139  A    between atoms: _346  and  _347
REMARK  140  A    between atoms: _346  and  _349
REMARK  141  A    between atoms: _349  and  _350
REMARK  142  A    between atoms: _350  and  _351
REMARK  143  A    between atoms: _351  and  _352
REMARK  144  A    between atoms: _361  and  _363
REMARK  145  A    between atoms: _363  and  _364
REMARK  146  A    between atoms: _366  and  _368
REMARK  147  A    between atoms: _368  and  _369
REMARK  148  A    between atoms: _368  and  _371
REMARK  149  A    between atoms: _371  and  _372
REMARK  150  A    between atoms: _375  and  _377
REMARK  151  A    between atoms: _377  and  _378
REMARK  152  A    between atoms: _377  and  _380
REMARK  153  A    between atoms: _380  and  _381
REMARK  154  A    between atoms: _381  and  _382
REMARK  155  A    between atoms: _387  and  _389
REMARK  156  A    between atoms: _389  and  _390
REMARK  157  A    between atoms: _392  and  _394
REMARK  158  A    between atoms: _394  and  _395
REMARK  159  A    between atoms: _394  and  _397
REMARK  160  A    between atoms: _397  and  _398
REMARK  161  A    between atoms: _404  and  _406
REMARK  162  A    between atoms: _406  and  _407
REMARK  163  A    between atoms: _409  and  _411
REMARK  164  A    between atoms: _411  and  _412
REMARK  165  A    between atoms: _411  and  _414
REMARK  166  A    between atoms: _414  and  _415
REMARK  167  A    between atoms: _418  and  _420
REMARK  168  A    between atoms: _420  and  _421
REMARK  169  A    between atoms: _420  and  _423
REMARK  170  A    between atoms: _423  and  _424
REMARK  171  A    between atoms: _426  and  _428
REMARK  172  A    between atoms: _428  and  _429
REMARK  173  A    between atoms: _428  and  _431
REMARK  174  A    between atoms: _431  and  _432
REMARK  175  A    between atoms: _432  and  _433
REMARK  176  A    between atoms: _438  and  _440
REMARK  177  A    between atoms: _440  and  _441
REMARK  178  A    between atoms: _440  and  _443
REMARK  179  A    between atoms: _443  and  _444
REMARK  180  A    between atoms: _447  and  _449
REMARK  181  A    between atoms: _449  and  _450
REMARK  182  A    between atoms: _449  and  _452
REMARK  183  A    between atoms: _452  and  _453
REMARK  184  A    between atoms: _455  and  _457
REMARK  185  A    between atoms: _457  and  _458
REMARK  186  A    between atoms: _460  and  _462
REMARK  187  A    between atoms: _462  and  _463
REMARK  188  A    between atoms: _462  and  _465
REMARK  189  A    between atoms: _465  and  _466
REMARK  190  A    between atoms: _468  and  _470
REMARK  191  A    between atoms: _470  and  _471
REMARK  192  A    between atoms: _474  and  _476
REMARK  193  A    between atoms: _476  and  _477
REMARK  194  A    between atoms: _476  and  _479
REMARK  195  A    between atoms: _479  and  _480
REMARK  196  A    between atoms: _483  and  _485
REMARK  197  A    between atoms: _485  and  _486
REMARK  198  A    between atoms: _485  and  _488
REMARK  199  A    between atoms: _491  and  _493
REMARK  200  A    between atoms: _493  and  _494
REMARK  201  A    between atoms: _493  and  _496
REMARK  202  A    between atoms: _496  and  _497
REMARK  203  A    between atoms: _497  and  _498
REMARK  204  A    between atoms: _498  and  _499
REMARK  205  A    between atoms: _499  and  _500
REMARK  206  A    between atoms: _505  and  _506
REMARK                            x       y       z     vdW  Elec       q    Type
REMARK                         _______ _______ _______ _____ _____    ______ ____
ROOT
ATOM      1  CA  ILE A   1      46.429  17.352  15.606  0.00  0.00    +0.133 C 
ENDROOT
BRANCH   1   2
ATOM      2  N   ILE A   1      46.611  17.010  17.003  0.00  0.00    -0.239 NA
ATOM      3  H   ILE A   1      47.551  16.699  17.320  0.00  0.00    +0.142 HD
ENDBRANCH   1   2
BRANCH   1   4
ATOM      4  CB  ILE A   1      47.776  17.912  14.994  0.00  0.00    +0.023 C 
ATOM      5  CG2 ILE A   1      47.722  17.931  13.440  0.00  0.00    +0.002 C 
BRANCH   4   6
ATOM      6  CG1 ILE A   1      48.018  19.359  15.475  0.00  0.00    +0.002 C 
ATOM      7  CD1 ILE A   1      49.396  19.967  15.109  0.00  0.00    +0.000 C 
ENDBRANCH   4   6
ENDBRANCH   1   4
BRANCH   1   8
ATOM      8  C   ILE A   1      46.026  16.080  14.857  0.00  0.00    +0.224 C 
ATOM      9  O   ILE A   1      46.643  15.023  15.006  0.00  0.00    -0.287 OA
ENDBRANCH   1   8
TORSDOF 4
REMARK  Name = ../refined-set-2016/1tjp/1tjp_pocket.pdb
REMARK  206 active torsions:
REMARK  status: ('A' for Active; 'I' for Inactive)
REMARK    1  A    between atoms: _1  and  _3
REMARK    2  A    between atoms: _3  and  _4
REMARK    3  A    between atoms: _3  and  _6
REMARK    4  A    between atoms: _10  and  _11
REMARK    5  A    between atoms: _16  and  _18
REMARK    6  A    between atoms: _18  and  _19
REMARK    7  A    between atoms: _18  and  _21
REMARK    8  A    between atoms: _21  and  _22
REMARK    9  A    between atoms: _28  and  _30
REMARK   10  A    between atoms: _30  and  _31
REMARK   11  A    between atoms: _30  and  _33
REMARK   12  A    between atoms: _36  and  _38
REMARK   13  A    between atoms: _38  and  _39
REMARK   14  A    between atoms: _38  and  _41
REMARK   15  A    between atoms: _41  and  _42
REMARK   16  A    between atoms: _45  and  _47
REMARK   17  A    between atoms: _47  and  _48
REMARK   18  A    between atoms: _47  and  _50
REMARK   19  A    between atoms: _50  and  _51
REMARK   20  A    between atoms: _51  and  _52
REMARK   21  A    between atoms: _55  and  _57
REMARK   22  A    between atoms: _57  and  _58
REMARK   23  A    between atoms: _57  and  _60
REMARK   24  A    between atoms: _60  and  _61
REMARK   25  A    between atoms: _64  and  _66
REMARK   26  A    between atoms: _66  and  _67
REMARK   27  A    between atoms: _70  and  _71
REMARK   28  A    between atoms: _76  and  _78
REMARK   29  A    between atoms: _78  and  _79
REMARK   30  A    between atoms: _78  and  _81
REMARK   31  A    between atoms: _81  and  _82
REMARK   32  A    between atoms: _85  and  _87
REMARK   33  A    between atoms: _87  and  _88
REMARK   34  A    between atoms: _91  and  _93
REMARK   35  A    between atoms: _93  and  _94
REMARK   36  A    between atoms: _93  and  _96
REMARK   37  A    between atoms: _96  and  _97
REMARK   38  A    between atoms: _100  and  _102
REMARK   39  A    between atoms: _102  and  _103
REMARK   40  A    between atoms: _105  and  _107
REMARK   41  A    between atoms: _107  and  _108
REMARK   42  A    between atoms: _107  and  _110
REMARK   43  A    between atoms: _110  and  _111
REMARK   44  A    between atoms: _114  and  _116
REMARK   45  A    between atoms: _116  and  _117
REMARK   46  A    between atoms: _116  and  _119
REMARK   47  A    between atoms: _119  and  _120
REMARK   48  A    between atoms: _123  and  _125
REMARK   49  A    between atoms: _125  and  _126
REMARK   50  A    between atoms: _125  and  _128
REMARK   51  A    between atoms: _128  and  _129
REMARK   52  A    between atoms: _129  and  _130
REMARK   53  A    between atoms: _135  and  _137
REMARK   54  A    between atoms: _137  and  _138
REMARK   55  A    between atoms: _137  and  _140
REMARK   56  A    between atoms: _140  and  _141
REMARK   57  A    between atoms: _146  and  _148
REMARK   58  A    between atoms: _148  and  _149
REMARK   59  A    between atoms: _148  and  _151
REMARK   60  A    between atoms: _151  and  _152
REMARK   61  A    between atoms: _155  and  _157
REMARK   62  A    between atoms: _157  and  _158
REMARK   63  A    between atoms: _157  and  _160
REMARK   64  A    between atoms: _160  and  _161
REMARK   65  A    between atoms: _164  and  _166
REMARK   66  A    between atoms: _166  and  _167
REMARK   67  A    between atoms: _166  and  _169
REMARK   68  A    between atoms: _169  and  _170
REMARK   69  A    between atoms: _170  and  _171
REMARK   70  A    between atoms: _173  and  _175
REMARK   71  A    between atoms: _175  and  _176
REMARK   72  A    between atoms: _175  and  _178
REMARK   73  A    between atoms: _178  and  _179
REMARK   74  A    between atoms: _184  and  _185
REMARK   75  A    between atoms: _187  and  _189
REMARK   76  A    between atoms: _189  and  _190
REMARK   77  A    between atoms: _189  and  _192
REMARK   78  A    between atoms: _192  and  _193
REMARK   79  A    between atoms: _196  and  _198
REMARK   80  A    between atoms: _198  and  _199
REMARK   81  A    between atoms: _198  and  _201
REMARK   82  A    between atoms: _204  and  _206
REMARK   83  A    between atoms: _206  and  _207
REMARK   84  A    between atoms: _210  and  _212
REMARK   85  A    between atoms: _212  and  _213
REMARK   86  A    between atoms: _212  and  _215
REMARK   87  A    between atoms: _215  and  _216
REMARK   88  A    between atoms: _219  and  _221
REMARK   89  A    between atoms: _221  and  _222
REMARK   90  A    between atoms: _221  and  _224
REMARK   91  A    between atoms: _224  and  _225
REMARK   92  A    between atoms: _228  and  _230
REMARK   93  A    between atoms: _230  and  _231
REMARK   94  A    between atoms: _230  and  _233
REMARK   95  A    between atoms: _233  and  _234
REMARK   96  A    between atoms: _239  and  _240
REMARK   97  A    between atoms: _242  and  _244
REMARK   98  A    between atoms: _244  and  _245
REMARK   99  A    between atoms: _244  and  _247
REMARK  100  A    between atoms: _247  and  _248
REMARK  101  A    between atoms: _253  and  _254
REMARK  102  A    between atoms: _256  and  _258
REMARK  103  A    between atoms: _258  and  _259
REMARK  104  A    between atoms: _258  and  _261
REMARK  105  A    between atoms: _261  and  _262
REMARK  106  A    between atoms: _265  and  _267
REMARK  107  A    between atoms: _267  and  _268
REMARK  108  A    between atoms: _267  and  _270
REMARK  109  A    between atoms: _270  and  _271
REMARK  110  A    between atoms: _273  and  _275
REMARK  111  A    between atoms: _275  and  _276
REMARK  112  A    between atoms: _275  and  _278
REMARK  113  A    between atoms: _278  and  _279
REMARK  114  A    between atoms: _279  and  _280
REMARK  115  A    between atoms: _280  and  _281
REMARK  116  A    between atoms: _290  and  _292
REMARK  117  A    between atoms: _292  and  _293
REMARK  118  A    between atoms: _295  and  _297
REMARK  119  A    between atoms: _297  and  _298
REMARK  120  A    between atoms: _297  and  _300
REMARK  121  A    between atoms: _303  and  _305
REMARK  122  A    between atoms: _305  and  _306
REMARK  123  A    between atoms: _305  and  _308
REMARK  124  A    between atoms: _308  and  _309
REMARK  125  A    between atoms: _312  and  _314
REMARK  126  A    between atoms: _314  and  _315
REMARK  127  A    between atoms: _317  and  _319
REMARK  128  A    between atoms: _319  and  _320
REMARK  129  A    between atoms: _323  and  _325
REMARK  130  A    between atoms: _325  and  _326
REMARK  131  A    between atoms: _325  and  _328
REMARK  132  A    between atoms: _328  and  _329
REMARK  133  A    between atoms: _329  and  _330
REMARK  134  A    between atoms: _333  and  _335
REMARK  135  A    between atoms: _335  and  _336
REMARK  136  A    between atoms: _335  and  _338
REMARK  137  A    between atoms: _338  and  _339
REMARK  138  A    between atoms: _344  and  _346
REMARK  139  A    between atoms: _346  and  _347
REMARK  140  A    between atoms: _346  and  _349
REMARK  141  A    between atoms: _349  and  _350
REMARK  142  A    between atoms: _350  and  _351
REMARK  143  A    between atoms: _351  and  _352
REMARK  144  A    between atoms: _361  and  _363
REMARK  145  A    between atoms: _363  and  _364
REMARK  146  A    between atoms: _366  and  _368
REMARK  147  A    between atoms: _368  and  _369
REMARK  148  A    between atoms: _368  and  _371
REMARK  149  A    between atoms: _371  and  _372
REMARK  150  A    between atoms: _375  and  _377
REMARK  151  A    between atoms: _377  and  _378
REMARK  152  A    between atoms: _377  and  _380
REMARK  153  A    between atoms: _380  and  _381
REMARK  154  A    between atoms: _381  and  _382
REMARK  155  A    between atoms: _387  and  _389
REMARK  156  A    between atoms: _389  and  _390
REMARK  157  A    between atoms: _392  and  _394
REMARK  158  A    between atoms: _394  and  _395
REMARK  159  A    between atoms: _394  and  _397
REMARK  160  A    between atoms: _397  and  _398
REMARK  161  A    between atoms: _404  and  _406
REMARK  162  A    between atoms: _406  and  _407
REMARK  163  A    between atoms: _409  and  _411
REMARK  164  A    between atoms: _411  and  _412
REMARK  165  A    between atoms: _411  and  _414
REMARK  166  A    between atoms: _414  and  _415
REMARK  167  A    between atoms: _418  and  _420
REMARK  168  A    between atoms: _420  and  _421
REMARK  169  A    between atoms: _420  and  _423
REMARK  170  A    between atoms: _423  and  _424
REMARK  171  A    between atoms: _426  and  _428
REMARK  172  A    between atoms: _428  and  _429
REMARK  173  A    between atoms: _428  and  _431
REMARK  174  A    between atoms: _431  and  _432
REMARK  175  A    between atoms: _432  and  _433
REMARK  176  A    between atoms: _438  and  _440
REMARK  177  A    between atoms: _440  and  _441
REMARK  178  A    between atoms: _440  and  _443
REMARK  179  A    between atoms: _443  and  _444
REMARK  180  A    between atoms: _447  and  _449
REMARK  181  A    between atoms: _449  and  _450
REMARK  182  A    between atoms: _449  and  _452
REMARK  183  A    between atoms: _452  and  _453
REMARK  184  A    between atoms: _455  and  _457
REMARK  185  A    between atoms: _457  and  _458
REMARK  186  A    between atoms: _460  and  _462
REMARK  187  A    between atoms: _462  and  _463
REMARK  188  A    between atoms: _462  and  _465
REMARK  189  A    between atoms: _465  and  _466
REMARK  190  A    between atoms: _468  and  _470
REMARK  191  A    between atoms: _470  and  _471
REMARK  192  A    between atoms: _474  and  _476
REMARK  193  A    between atoms: _476  and  _477
REMARK  194  A    between atoms: _476  and  _479
REMARK  195  A    between atoms: _479  and  _480
REMARK  196  A    between atoms: _483  and  _485
REMARK  197  A    between atoms: _485  and  _486
REMARK  198  A    between atoms: _485  and  _488
REMARK  199  A    between atoms: _491  and  _493
REMARK  200  A    between atoms: _493  and  _494
REMARK  201  A    between atoms: _493  and  _496
REMARK  202  A    between atoms: _496  and  _497
REMARK  203  A    between atoms: _497  and  _498
REMARK  204  A    between atoms: _498  and  _499
REMARK  205  A    between atoms: _499  and  _500
REMARK  206  A    between atoms: _505  and  _506
REMARK                            x       y       z     vdW  Elec       q    Type
REMARK                         _______ _______ _______ _____ _____    ______ ____
ROOT
ATOM      1  CG  TYR A   1      40.331  22.715  20.087  0.00  0.00    -0.020 A 
ATOM      2  CD2 TYR A   1      40.926  23.370  21.163  0.00  0.00    -0.001 A 
ATOM      3  CE2 TYR A   1      42.212  23.907  21.060  0.00  0.00    +0.036 A 
ATOM      4  CZ  TYR A   1      42.909  23.788  19.870  0.00  0.00    +0.134 A 
ATOM      5  CE1 TYR A   1      42.340  23.141  18.785  0.00  0.00    +0.036 A 
ATOM      6  CD1 TYR A   1      41.054  22.606  18.900  0.00  0.00    -0.001 A 
ENDROOT
BRANCH   4   7
ATOM      7  OH  TYR A   1      44.179  24.315  19.763  0.00  0.00    -0.506 OA
ATOM      8  HH  TYR A   1      44.145  25.291  19.926  0.00  0.00    +0.292 HD
ENDBRANCH   4   7
BRANCH   1   9
ATOM      9  CB  TYR A   1      38.930  22.143  20.203  0.00  0.00    +0.051 C 
BRANCH   9  10
ATOM     10  CA  TYR A   1      38.840  20.696  20.727  0.00  0.00    +0.137 C 
BRANCH  10  11
ATOM     11  N   TYR A   1      39.106  20.641  22.159  0.00  0.00    -0.239 NA
ATOM     12  H   TYR A   1      40.064  20.408  22.490  0.00  0.00    +0.142 HD
ENDBRANCH  10  11
BRANCH  10  13
ATOM     13  C   TYR A   1      39.851  19.807  20.019  0.00  0.00    +0.224 C 
ATOM     14  O   TYR A   1      40.896  19.476  20.580  0.00  0.00    -0.287 OA
ENDBRANCH  10  13
ENDBRANCH   9  10
ENDBRANCH   1   9
TORSDOF 5
REMARK  Name = ../refined-set-2016/1tjp/1tjp_pocket.pdb
REMARK  206 active torsions:
REMARK  status: ('A' for Active; 'I' for Inactive)
REMARK    1  A    between atoms: _1  and  _3
REMARK    2  A    between atoms: _3  and  _4
REMARK    3  A    between atoms: _3  and  _6
REMARK    4  A    between atoms: _10  and  _11
REMARK    5  A    between atoms: _16  and  _18
REMARK    6  A    between atoms: _18  and  _19
REMARK    7  A    between atoms: _18  and  _21
REMARK    8  A    between atoms: _21  and  _22
REMARK    9  A    between atoms: _28  and  _30
REMARK   10  A    between atoms: _30  and  _31
REMARK   11  A    between atoms: _30  and  _33
REMARK   12  A    between atoms: _36  and  _38
REMARK   13  A    between atoms: _38  and  _39
REMARK   14  A    between atoms: _38  and  _41
REMARK   15  A    between atoms: _41  and  _42
REMARK   16  A    between atoms: _45  and  _47
REMARK   17  A    between atoms: _47  and  _48
REMARK   18  A    between atoms: _47  and  _50
REMARK   19  A    between atoms: _50  and  _51
REMARK   20  A    between atoms: _51  and  _52
REMARK   21  A    between atoms: _55  and  _57
REMARK   22  A    between atoms: _57  and  _58
REMARK   23  A    between atoms: _57  and  _60
REMARK   24  A    between atoms: _60  and  _61
REMARK   25  A    between atoms: _64  and  _66
REMARK   26  A    between atoms: _66  and  _67
REMARK   27  A    between atoms: _70  and  _71
REMARK   28  A    between atoms: _76  and  _78
REMARK   29  A    between atoms: _78  and  _79
REMARK   30  A    between atoms: _78  and  _81
REMARK   31  A    between atoms: _81  and  _82
REMARK   32  A    between atoms: _85  and  _87
REMARK   33  A    between atoms: _87  and  _88
REMARK   34  A    between atoms: _91  and  _93
REMARK   35  A    between atoms: _93  and  _94
REMARK   36  A    between atoms: _93  and  _96
REMARK   37  A    between atoms: _96  and  _97
REMARK   38  A    between atoms: _100  and  _102
REMARK   39  A    between atoms: _102  and  _103
REMARK   40  A    between atoms: _105  and  _107
REMARK   41  A    between atoms: _107  and  _108
REMARK   42  A    between atoms: _107  and  _110
REMARK   43  A    between atoms: _110  and  _111
REMARK   44  A    between atoms: _114  and  _116
REMARK   45  A    between atoms: _116  and  _117
REMARK   46  A    between atoms: _116  and  _119
REMARK   47  A    between atoms: _119  and  _120
REMARK   48  A    between atoms: _123  and  _125
REMARK   49  A    between atoms: _125  and  _126
REMARK   50  A    between atoms: _125  and  _128
REMARK   51  A    between atoms: _128  and  _129
REMARK   52  A    between atoms: _129  and  _130
REMARK   53  A    between atoms: _135  and  _137
REMARK   54  A    between atoms: _137  and  _138
REMARK   55  A    between atoms: _137  and  _140
REMARK   56  A    between atoms: _140  and  _141
REMARK   57  A    between atoms: _146  and  _148
REMARK   58  A    between atoms: _148  and  _149
REMARK   59  A    between atoms: _148  and  _151
REMARK   60  A    between atoms: _151  and  _152
REMARK   61  A    between atoms: _155  and  _157
REMARK   62  A    between atoms: _157  and  _158
REMARK   63  A    between atoms: _157  and  _160
REMARK   64  A    between atoms: _160  and  _161
REMARK   65  A    between atoms: _164  and  _166
REMARK   66  A    between atoms: _166  and  _167
REMARK   67  A    between atoms: _166  and  _169
REMARK   68  A    between atoms: _169  and  _170
REMARK   69  A    between atoms: _170  and  _171
REMARK   70  A    between atoms: _173  and  _175
REMARK   71  A    between atoms: _175  and  _176
REMARK   72  A    between atoms: _175  and  _178
REMARK   73  A    between atoms: _178  and  _179
REMARK   74  A    between atoms: _184  and  _185
REMARK   75  A    between atoms: _187  and  _189
REMARK   76  A    between atoms: _189  and  _190
REMARK   77  A    between atoms: _189  and  _192
REMARK   78  A    between atoms: _192  and  _193
REMARK   79  A    between atoms: _196  and  _198
REMARK   80  A    between atoms: _198  and  _199
REMARK   81  A    between atoms: _198  and  _201
REMARK   82  A    between atoms: _204  and  _206
REMARK   83  A    between atoms: _206  and  _207
REMARK   84  A    between atoms: _210  and  _212
REMARK   85  A    between atoms: _212  and  _213
REMARK   86  A    between atoms: _212  and  _215
REMARK   87  A    between atoms: _215  and  _216
REMARK   88  A    between atoms: _219  and  _221
REMARK   89  A    between atoms: _221  and  _222
REMARK   90  A    between atoms: _221  and  _224
REMARK   91  A    between atoms: _224  and  _225
REMARK   92  A    between atoms: _228  and  _230
REMARK   93  A    between atoms: _230  and  _231
REMARK   94  A    between atoms: _230  and  _233
REMARK   95  A    between atoms: _233  and  _234
REMARK   96  A    between atoms: _239  and  _240
REMARK   97  A    between atoms: _242  and  _244
REMARK   98  A    between atoms: _244  and  _245
REMARK   99  A    between atoms: _244  and  _247
REMARK  100  A    between atoms: _247  and  _248
REMARK  101  A    between atoms: _253  and  _254
REMARK  102  A    between atoms: _256  and  _258
REMARK  103  A    between atoms: _258  and  _259
REMARK  104  A    between atoms: _258  and  _261
REMARK  105  A    between atoms: _261  and  _262
REMARK  106  A    between atoms: _265  and  _267
REMARK  107  A    between atoms: _267  and  _268
REMARK  108  A    between atoms: _267  and  _270
REMARK  109  A    between atoms: _270  and  _271
REMARK  110  A    between atoms: _273  and  _275
REMARK  111  A    between atoms: _275  and  _276
REMARK  112  A    between atoms: _275  and  _278
REMARK  113  A    between atoms: _278  and  _279
REMARK  114  A    between atoms: _279  and  _280
REMARK  115  A    between atoms: _280  and  _281
REMARK  116  A    between atoms: _290  and  _292
REMARK  117  A    between atoms: _292  and  _293
REMARK  118  A    between atoms: _295  and  _297
REMARK  119  A    between atoms: _297  and  _298
REMARK  120  A    between atoms: _297  and  _300
REMARK  121  A    between atoms: _303  and  _305
REMARK  122  A    between atoms: _305  and  _306
REMARK  123  A    between atoms: _305  and  _308
REMARK  124  A    between atoms: _308  and  _309
REMARK  125  A    between atoms: _312  and  _314
REMARK  126  A    between atoms: _314  and  _315
REMARK  127  A    between atoms: _317  and  _319
REMARK  128  A    between atoms: _319  and  _320
REMARK  129  A    between atoms: _323  and  _325
REMARK  130  A    between atoms: _325  and  _326
REMARK  131  A    between atoms: _325  and  _328
REMARK  132  A    between atoms: _328  and  _329
REMARK  133  A    between atoms: _329  and  _330
REMARK  134  A    between atoms: _333  and  _335
REMARK  135  A    between atoms: _335  and  _336
REMARK  136  A    between atoms: _335  and  _338
REMARK  137  A    between atoms: _338  and  _339
REMARK  138  A    between atoms: _344  and  _346
REMARK  139  A    between atoms: _346  and  _347
REMARK  140  A    between atoms: _346  and  _349
REMARK  141  A    between atoms: _349  and  _350
REMARK  142  A    between atoms: _350  and  _351
REMARK  143  A    between atoms: _351  and  _352
REMARK  144  A    between atoms: _361  and  _363
REMARK  145  A    between atoms: _363  and  _364
REMARK  146  A    between atoms: _366  and  _368
REMARK  147  A    between atoms: _368  and  _369
REMARK  148  A    between atoms: _368  and  _371
REMARK  149  A    between atoms: _371  and  _372
REMARK  150  A    between atoms: _375  and  _377
REMARK  151  A    between atoms: _377  and  _378
REMARK  152  A    between atoms: _377  and  _380
REMARK  153  A    between atoms: _380  and  _381
REMARK  154  A    between atoms: _381  and  _382
REMARK  155  A    between atoms: _387  and  _389
REMARK  156  A    between atoms: _389  and  _390
REMARK  157  A    between atoms: _392  and  _394
REMARK  158  A    between atoms: _394  and  _395
REMARK  159  A    between atoms: _394  and  _397
REMARK  160  A    between atoms: _397  and  _398
REMARK  161  A    between atoms: _404  and  _406
REMARK  162  A    between atoms: _406  and  _407
REMARK  163  A    between atoms: _409  and  _411
REMARK  164  A    between atoms: _411  and  _412
REMARK  165  A    between atoms: _411  and  _414
REMARK  166  A    between atoms: _414  and  _415
REMARK  167  A    between atoms: _418  and  _420
REMARK  168  A    between atoms: _420  and  _421
REMARK  169  A    between atoms: _420  and  _423
REMARK  170  A    between atoms: _423  and  _424
REMARK  171  A    between atoms: _426  and  _428
REMARK  172  A    between atoms: _428  and  _429
REMARK  173  A    between atoms: _428  and  _431
REMARK  174  A    between atoms: _431  and  _432
REMARK  175  A    between atoms: _432  and  _433
REMARK  176  A    between atoms: _438  and  _440
REMARK  177  A    between atoms: _440  and  _441
REMARK  178  A    between atoms: _440  and  _443
REMARK  179  A    between atoms: _443  and  _444
REMARK  180  A    between atoms: _447  and  _449
REMARK  181  A    between atoms: _449  and  _450
REMARK  182  A    between atoms: _449  and  _452
REMARK  183  A    between atoms: _452  and  _453
REMARK  184  A    between atoms: _455  and  _457
REMARK  185  A    between atoms: _457  and  _458
REMARK  186  A    between atoms: _460  and  _462
REMARK  187  A    between atoms: _462  and  _463
REMARK  188  A    between atoms: _462  and  _465
REMARK  189  A    between atoms: _465  and  _466
REMARK  190  A    between atoms: _468  and  _470
REMARK  191  A    between atoms: _470  and  _471
REMARK  192  A    between atoms: _474  and  _476
REMARK  193  A    between atoms: _476  and  _477
REMARK  194  A    between atoms: _476  and  _479
REMARK  195  A    between atoms: _479  and  _480
REMARK  196  A    between atoms: _483  and  _485
REMARK  197  A    between atoms: _485  and  _486
REMARK  198  A    between atoms: _485  and  _488
REMARK  199  A    between atoms: _491  and  _493
REMARK  200  A    between atoms: _493  and  _494
REMARK  201  A    between atoms: _493  and  _496
REMARK  202  A    between atoms: _496  and  _497
REMARK  203  A    between atoms: _497  and  _498
REMARK  204  A    between atoms: _498  and  _499
REMARK  205  A    between atoms: _499  and  _500
REMARK  206  A    between atoms: _505  and  _506
REMARK                            x       y       z     vdW  Elec       q    Type
REMARK                         _______ _______ _______ _____ _____    ______ ____
ROOT
ATOM      1  CG  TYR A   1      44.974  21.879  15.456  0.00  0.00    -0.020 A 
ATOM      2  CD2 TYR A   1      45.256  23.090  16.090  0.00  0.00    -0.001 A 
ATOM      3  CE2 TYR A   1      45.764  24.173  15.378  0.00  0.00    +0.036 A 
ATOM      4  CZ  TYR A   1      45.996  24.049  14.015  0.00  0.00    +0.134 A 
ATOM      5  CE1 TYR A   1      45.730  22.858  13.365  0.00  0.00    +0.036 A 
ATOM      6  CD1 TYR A   1      45.222  21.781  14.087  0.00  0.00    -0.001 A 
ENDROOT
BRANCH   4   7
ATOM      7  OH  TYR A   1      46.473  25.118  13.298  0.00  0.00    -0.506 OA
ATOM      8  HH  TYR A   1      47.349  25.396  13.665  0.00  0.00    +0.292 HD
ENDBRANCH   4   7
BRANCH   1   9
ATOM      9  CB  TYR A   1      44.384  20.715  16.227  0.00  0.00    +0.051 C 
BRANCH   9  10
ATOM     10  CA  TYR A   1      42.945  20.377  15.820  0.00  0.00    +0.137 C 
BRANCH  10  11
ATOM     11  N   TYR A   1      42.317  19.521  16.817  0.00  0.00    -0.239 NA
ATOM     12  H   TYR A   1      42.918  18.925  17.422  0.00  0.00    +0.142 HD
ENDBRANCH  10  11
BRANCH  10  13
ATOM     13  C   TYR A   1      42.941  19.648  14.484  0.00  0.00    +0.224 C 
ATOM     14  O   TYR A   1      43.693  18.692  14.288  0.00  0.00    -0.287 OA
ENDBRANCH  10  13
ENDBRANCH   9  10
ENDBRANCH   1   9
TORSDOF 5
REMARK  Name = ../refined-set-2016/1tjp/1tjp_pocket.pdb
REMARK  206 active torsions:
REMARK  status: ('A' for Active; 'I' for Inactive)
REMARK    1  A    between atoms: _1  and  _3
REMARK    2  A    between atoms: _3  and  _4
REMARK    3  A    between atoms: _3  and  _6
REMARK    4  A    between atoms: _10  and  _11
REMARK    5  A    between atoms: _16  and  _18
REMARK    6  A    between atoms: _18  and  _19
REMARK    7  A    between atoms: _18  and  _21
REMARK    8  A    between atoms: _21  and  _22
REMARK    9  A    between atoms: _28  and  _30
REMARK   10  A    between atoms: _30  and  _31
REMARK   11  A    between atoms: _30  and  _33
REMARK   12  A    between atoms: _36  and  _38
REMARK   13  A    between atoms: _38  and  _39
REMARK   14  A    between atoms: _38  and  _41
REMARK   15  A    between atoms: _41  and  _42
REMARK   16  A    between atoms: _45  and  _47
REMARK   17  A    between atoms: _47  and  _48
REMARK   18  A    between atoms: _47  and  _50
REMARK   19  A    between atoms: _50  and  _51
REMARK   20  A    between atoms: _51  and  _52
REMARK   21  A    between atoms: _55  and  _57
REMARK   22  A    between atoms: _57  and  _58
REMARK   23  A    between atoms: _57  and  _60
REMARK   24  A    between atoms: _60  and  _61
REMARK   25  A    between atoms: _64  and  _66
REMARK   26  A    between atoms: _66  and  _67
REMARK   27  A    between atoms: _70  and  _71
REMARK   28  A    between atoms: _76  and  _78
REMARK   29  A    between atoms: _78  and  _79
REMARK   30  A    between atoms: _78  and  _81
REMARK   31  A    between atoms: _81  and  _82
REMARK   32  A    between atoms: _85  and  _87
REMARK   33  A    between atoms: _87  and  _88
REMARK   34  A    between atoms: _91  and  _93
REMARK   35  A    between atoms: _93  and  _94
REMARK   36  A    between atoms: _93  and  _96
REMARK   37  A    between atoms: _96  and  _97
REMARK   38  A    between atoms: _100  and  _102
REMARK   39  A    between atoms: _102  and  _103
REMARK   40  A    between atoms: _105  and  _107
REMARK   41  A    between atoms: _107  and  _108
REMARK   42  A    between atoms: _107  and  _110
REMARK   43  A    between atoms: _110  and  _111
REMARK   44  A    between atoms: _114  and  _116
REMARK   45  A    between atoms: _116  and  _117
REMARK   46  A    between atoms: _116  and  _119
REMARK   47  A    between atoms: _119  and  _120
REMARK   48  A    between atoms: _123  and  _125
REMARK   49  A    between atoms: _125  and  _126
REMARK   50  A    between atoms: _125  and  _128
REMARK   51  A    between atoms: _128  and  _129
REMARK   52  A    between atoms: _129  and  _130
REMARK   53  A    between atoms: _135  and  _137
REMARK   54  A    between atoms: _137  and  _138
REMARK   55  A    between atoms: _137  and  _140
REMARK   56  A    between atoms: _140  and  _141
REMARK   57  A    between atoms: _146  and  _148
REMARK   58  A    between atoms: _148  and  _149
REMARK   59  A    between atoms: _148  and  _151
REMARK   60  A    between atoms: _151  and  _152
REMARK   61  A    between atoms: _155  and  _157
REMARK   62  A    between atoms: _157  and  _158
REMARK   63  A    between atoms: _157  and  _160
REMARK   64  A    between atoms: _160  and  _161
REMARK   65  A    between atoms: _164  and  _166
REMARK   66  A    between atoms: _166  and  _167
REMARK   67  A    between atoms: _166  and  _169
REMARK   68  A    between atoms: _169  and  _170
REMARK   69  A    between atoms: _170  and  _171
REMARK   70  A    between atoms: _173  and  _175
REMARK   71  A    between atoms: _175  and  _176
REMARK   72  A    between atoms: _175  and  _178
REMARK   73  A    between atoms: _178  and  _179
REMARK   74  A    between atoms: _184  and  _185
REMARK   75  A    between atoms: _187  and  _189
REMARK   76  A    between atoms: _189  and  _190
REMARK   77  A    between atoms: _189  and  _192
REMARK   78  A    between atoms: _192  and  _193
REMARK   79  A    between atoms: _196  and  _198
REMARK   80  A    between atoms: _198  and  _199
REMARK   81  A    between atoms: _198  and  _201
REMARK   82  A    between atoms: _204  and  _206
REMARK   83  A    between atoms: _206  and  _207
REMARK   84  A    between atoms: _210  and  _212
REMARK   85  A    between atoms: _212  and  _213
REMARK   86  A    between atoms: _212  and  _215
REMARK   87  A    between atoms: _215  and  _216
REMARK   88  A    between atoms: _219  and  _221
REMARK   89  A    between atoms: _221  and  _222
REMARK   90  A    between atoms: _221  and  _224
REMARK   91  A    between atoms: _224  and  _225
REMARK   92  A    between atoms: _228  and  _230
REMARK   93  A    between atoms: _230  and  _231
REMARK   94  A    between atoms: _230  and  _233
REMARK   95  A    between atoms: _233  and  _234
REMARK   96  A    between atoms: _239  and  _240
REMARK   97  A    between atoms: _242  and  _244
REMARK   98  A    between atoms: _244  and  _245
REMARK   99  A    between atoms: _244  and  _247
REMARK  100  A    between atoms: _247  and  _248
REMARK  101  A    between atoms: _253  and  _254
REMARK  102  A    between atoms: _256  and  _258
REMARK  103  A    between atoms: _258  and  _259
REMARK  104  A    between atoms: _258  and  _261
REMARK  105  A    between atoms: _261  and  _262
REMARK  106  A    between atoms: _265  and  _267
REMARK  107  A    between atoms: _267  and  _268
REMARK  108  A    between atoms: _267  and  _270
REMARK  109  A    between atoms: _270  and  _271
REMARK  110  A    between atoms: _273  and  _275
REMARK  111  A    between atoms: _275  and  _276
REMARK  112  A    between atoms: _275  and  _278
REMARK  113  A    between atoms: _278  and  _279
REMARK  114  A    between atoms: _279  and  _280
REMARK  115  A    between atoms: _280  and  _281
REMARK  116  A    between atoms: _290  and  _292
REMARK  117  A    between atoms: _292  and  _293
REMARK  118  A    between atoms: _295  and  _297
REMARK  119  A    between atoms: _297  and  _298
REMARK  120  A    between atoms: _297  and  _300
REMARK  121  A    between atoms: _303  and  _305
REMARK  122  A    between atoms: _305  and  _306
REMARK  123  A    between atoms: _305  and  _308
REMARK  124  A    between atoms: _308  and  _309
REMARK  125  A    between atoms: _312  and  _314
REMARK  126  A    between atoms: _314  and  _315
REMARK  127  A    between atoms: _317  and  _319
REMARK  128  A    between atoms: _319  and  _320
REMARK  129  A    between atoms: _323  and  _325
REMARK  130  A    between atoms: _325  and  _326
REMARK  131  A    between atoms: _325  and  _328
REMARK  132  A    between atoms: _328  and  _329
REMARK  133  A    between atoms: _329  and  _330
REMARK  134  A    between atoms: _333  and  _335
REMARK  135  A    between atoms: _335  and  _336
REMARK  136  A    between atoms: _335  and  _338
REMARK  137  A    between atoms: _338  and  _339
REMARK  138  A    between atoms: _344  and  _346
REMARK  139  A    between atoms: _346  and  _347
REMARK  140  A    between atoms: _346  and  _349
REMARK  141  A    between atoms: _349  and  _350
REMARK  142  A    between atoms: _350  and  _351
REMARK  143  A    between atoms: _351  and  _352
REMARK  144  A    between atoms: _361  and  _363
REMARK  145  A    between atoms: _363  and  _364
REMARK  146  A    between atoms: _366  and  _368
REMARK  147  A    between atoms: _368  and  _369
REMARK  148  A    between atoms: _368  and  _371
REMARK  149  A    between atoms: _371  and  _372
REMARK  150  A    between atoms: _375  and  _377
REMARK  151  A    between atoms: _377  and  _378
REMARK  152  A    between atoms: _377  and  _380
REMARK  153  A    between atoms: _380  and  _381
REMARK  154  A    between atoms: _381  and  _382
REMARK  155  A    between atoms: _387  and  _389
REMARK  156  A    between atoms: _389  and  _390
REMARK  157  A    between atoms: _392  and  _394
REMARK  158  A    between atoms: _394  and  _395
REMARK  159  A    between atoms: _394  and  _397
REMARK  160  A    between atoms: _397  and  _398
REMARK  161  A    between atoms: _404  and  _406
REMARK  162  A    between atoms: _406  and  _407
REMARK  163  A    between atoms: _409  and  _411
REMARK  164  A    between atoms: _411  and  _412
REMARK  165  A    between atoms: _411  and  _414
REMARK  166  A    between atoms: _414  and  _415
REMARK  167  A    between atoms: _418  and  _420
REMARK  168  A    between atoms: _420  and  _421
REMARK  169  A    between atoms: _420  and  _423
REMARK  170  A    between atoms: _423  and  _424
REMARK  171  A    between atoms: _426  and  _428
REMARK  172  A    between atoms: _428  and  _429
REMARK  173  A    between atoms: _428  and  _431
REMARK  174  A    between atoms: _431  and  _432
REMARK  175  A    between atoms: _432  and  _433
REMARK  176  A    between atoms: _438  and  _440
REMARK  177  A    between atoms: _440  and  _441
REMARK  178  A    between atoms: _440  and  _443
REMARK  179  A    between atoms: _443  and  _444
REMARK  180  A    between atoms: _447  and  _449
REMARK  181  A    between atoms: _449  and  _450
REMARK  182  A    between atoms: _449  and  _452
REMARK  183  A    between atoms: _452  and  _453
REMARK  184  A    between atoms: _455  and  _457
REMARK  185  A    between atoms: _457  and  _458
REMARK  186  A    between atoms: _460  and  _462
REMARK  187  A    between atoms: _462  and  _463
REMARK  188  A    between atoms: _462  and  _465
REMARK  189  A    between atoms: _465  and  _466
REMARK  190  A    between atoms: _468  and  _470
REMARK  191  A    between atoms: _470  and  _471
REMARK  192  A    between atoms: _474  and  _476
REMARK  193  A    between atoms: _476  and  _477
REMARK  194  A    between atoms: _476  and  _479
REMARK  195  A    between atoms: _479  and  _480
REMARK  196  A    between atoms: _483  and  _485
REMARK  197  A    between atoms: _485  and  _486
REMARK  198  A    between atoms: _485  and  _488
REMARK  199  A    between atoms: _491  and  _493
REMARK  200  A    between atoms: _493  and  _494
REMARK  201  A    between atoms: _493  and  _496
REMARK  202  A    between atoms: _496  and  _497
REMARK  203  A    between atoms: _497  and  _498
REMARK  204  A    between atoms: _498  and  _499
REMARK  205  A    between atoms: _499  and  _500
REMARK  206  A    between atoms: _505  and  _506
REMARK                            x       y       z     vdW  Elec       q    Type
REMARK                         _______ _______ _______ _____ _____    ______ ____
ROOT
ATOM      1  C   SER A   2      44.831  20.895   5.496  0.00  0.00    +0.243 C 
ATOM      2  N   ARG A   3      46.113  20.679   5.796  0.00  0.00    -0.298 N 
ATOM      3  H   ARG A   3      46.445  20.898   6.757  0.00  0.00    +0.150 HD
ATOM      4  O   SER A   2      44.322  20.563   4.415  0.00  0.00    -0.273 OA
ENDROOT
BRANCH   1   5
ATOM      5  CA  SER A   2      43.977  21.604   6.546  0.00  0.00    +0.178 C 
BRANCH   5   8
ATOM      6  C   LEU A   1      44.331  20.269   8.540  0.00  0.00    +0.238 C 
ATOM      7  O   LEU A   1      43.789  19.302   8.018  0.00  0.00    -0.274 OA
ATOM      8  N   SER A   2      44.489  21.416   7.909  0.00  0.00    -0.295 N 
ATOM      9  H   SER A   2      44.983  22.198   8.384  0.00  0.00    +0.150 HD
BRANCH   6  10
ATOM     10  CA  LEU A   1      44.901  20.138   9.941  0.00  0.00    +0.145 C 
BRANCH  10  11
ATOM     11  N   LEU A   1      43.960  19.533  10.870  0.00  0.00    -0.238 NA
ATOM     12  H   LEU A   1      44.142  18.569  11.215  0.00  0.00    +0.142 HD
ENDBRANCH  10  11
BRANCH  10  13
ATOM     13  CB  LEU A   1      46.153  19.245   9.807  0.00  0.00    +0.026 C 
BRANCH  13  14
ATOM     14  CG  LEU A   1      47.396  19.472  10.595  0.00  0.00    +0.002 C 
ATOM     15  CD2 LEU A   1      47.875  20.933  10.486  0.00  0.00    +0.000 C 
ATOM     16  CD1 LEU A   1      48.451  18.501  10.055  0.00  0.00    +0.000 C 
ENDBRANCH  13  14
ENDBRANCH  10  13
ENDBRANCH   6  10
ENDBRANCH   5   8
BRANCH   5  17
ATOM     17  CB  SER A   2      43.952  23.101   6.179  0.00  0.00    +0.166 C 
BRANCH  17  18
ATOM     18  OG  SER A   2      45.222  23.619   5.945  0.00  0.00    -0.380 OA
ATOM     19  H   SER A   2      45.148  24.579   5.714  0.00  0.00    +0.211 HD
ENDBRANCH  17  18
ENDBRANCH   5  17
ENDBRANCH   1   5
BRANCH   2  20
ATOM     20  CA  ARG A   3      47.074  20.143   4.821  0.00  0.00    +0.137 C 
BRANCH  20  21
ATOM     21  C   ARG A   3      48.366  19.809   5.529  0.00  0.00    +0.227 C 
ATOM     22  O   ARG A   3      48.566  20.118   6.715  0.00  0.00    -0.286 OA
ENDBRANCH  20  21
BRANCH  20  23
ATOM     23  CB  ARG A   3      47.429  21.226   3.792  0.00  0.00    +0.031 C 
BRANCH  23  24
ATOM     24  CG  ARG A   3      47.843  22.566   4.481  0.00  0.00    +0.045 C 
BRANCH  24  25
ATOM     25  CD  ARG A   3      48.519  23.531   3.512  0.00  0.00    +0.174 C 
BRANCH  25  26
ATOM     26  NE  ARG A   3      48.807  24.843   4.122  0.00  0.00    -0.265 N 
ATOM     27  CZ  ARG A   3      49.828  25.092   4.954  0.00  0.00    +0.342 C 
ATOM     28  NH2 ARG A   3      50.035  26.336   5.453  0.00  0.00    -0.292 N 
ATOM     29 HH21 ARG A   3      50.832  26.512   6.097  0.00  0.00    +0.255 HD
ATOM     30 HH22 ARG A   3      49.397  27.114   5.191  0.00  0.00    +0.255 HD
ATOM     31  NH1 ARG A   3      50.675  24.108   5.292  0.00  0.00    -0.292 N 
ATOM     32 HH11 ARG A   3      51.467  24.302   5.938  0.00  0.00    +0.255 HD
ATOM     33 HH12 ARG A   3      50.540  23.151   4.908  0.00  0.00    +0.255 HD
ATOM     34  HE  ARG A   3      48.171  25.633   3.889  0.00  0.00    +0.259 HD
ENDBRANCH  25  26
ENDBRANCH  24  25
ENDBRANCH  23  24
ENDBRANCH  20  23
ENDBRANCH   2  20
TORSDOF 14
REMARK  Name = ../refined-set-2016/1tjp/1tjp_pocket.pdb
REMARK  206 active torsions:
REMARK  status: ('A' for Active; 'I' for Inactive)
REMARK    1  A    between atoms: _1  and  _3
REMARK    2  A    between atoms: _3  and  _4
REMARK    3  A    between atoms: _3  and  _6
REMARK    4  A    between atoms: _10  and  _11
REMARK    5  A    between atoms: _16  and  _18
REMARK    6  A    between atoms: _18  and  _19
REMARK    7  A    between atoms: _18  and  _21
REMARK    8  A    between atoms: _21  and  _22
REMARK    9  A    between atoms: _28  and  _30
REMARK   10  A    between atoms: _30  and  _31
REMARK   11  A    between atoms: _30  and  _33
REMARK   12  A    between atoms: _36  and  _38
REMARK   13  A    between atoms: _38  and  _39
REMARK   14  A    between atoms: _38  and  _41
REMARK   15  A    between atoms: _41  and  _42
REMARK   16  A    between atoms: _45  and  _47
REMARK   17  A    between atoms: _47  and  _48
REMARK   18  A    between atoms: _47  and  _50
REMARK   19  A    between atoms: _50  and  _51
REMARK   20  A    between atoms: _51  and  _52
REMARK   21  A    between atoms: _55  and  _57
REMARK   22  A    between atoms: _57  and  _58
REMARK   23  A    between atoms: _57  and  _60
REMARK   24  A    between atoms: _60  and  _61
REMARK   25  A    between atoms: _64  and  _66
REMARK   26  A    between atoms: _66  and  _67
REMARK   27  A    between atoms: _70  and  _71
REMARK   28  A    between atoms: _76  and  _78
REMARK   29  A    between atoms: _78  and  _79
REMARK   30  A    between atoms: _78  and  _81
REMARK   31  A    between atoms: _81  and  _82
REMARK   32  A    between atoms: _85  and  _87
REMARK   33  A    between atoms: _87  and  _88
REMARK   34  A    between atoms: _91  and  _93
REMARK   35  A    between atoms: _93  and  _94
REMARK   36  A    between atoms: _93  and  _96
REMARK   37  A    between atoms: _96  and  _97
REMARK   38  A    between atoms: _100  and  _102
REMARK   39  A    between atoms: _102  and  _103
REMARK   40  A    between atoms: _105  and  _107
REMARK   41  A    between atoms: _107  and  _108
REMARK   42  A    between atoms: _107  and  _110
REMARK   43  A    between atoms: _110  and  _111
REMARK   44  A    between atoms: _114  and  _116
REMARK   45  A    between atoms: _116  and  _117
REMARK   46  A    between atoms: _116  and  _119
REMARK   47  A    between atoms: _119  and  _120
REMARK   48  A    between atoms: _123  and  _125
REMARK   49  A    between atoms: _125  and  _126
REMARK   50  A    between atoms: _125  and  _128
REMARK   51  A    between atoms: _128  and  _129
REMARK   52  A    between atoms: _129  and  _130
REMARK   53  A    between atoms: _135  and  _137
REMARK   54  A    between atoms: _137  and  _138
REMARK   55  A    between atoms: _137  and  _140
REMARK   56  A    between atoms: _140  and  _141
REMARK   57  A    between atoms: _146  and  _148
REMARK   58  A    between atoms: _148  and  _149
REMARK   59  A    between atoms: _148  and  _151
REMARK   60  A    between atoms: _151  and  _152
REMARK   61  A    between atoms: _155  and  _157
REMARK   62  A    between atoms: _157  and  _158
REMARK   63  A    between atoms: _157  and  _160
REMARK   64  A    between atoms: _160  and  _161
REMARK   65  A    between atoms: _164  and  _166
REMARK   66  A    between atoms: _166  and  _167
REMARK   67  A    between atoms: _166  and  _169
REMARK   68  A    between atoms: _169  and  _170
REMARK   69  A    between atoms: _170  and  _171
REMARK   70  A    between atoms: _173  and  _175
REMARK   71  A    between atoms: _175  and  _176
REMARK   72  A    between atoms: _175  and  _178
REMARK   73  A    between atoms: _178  and  _179
REMARK   74  A    between atoms: _184  and  _185
REMARK   75  A    between atoms: _187  and  _189
REMARK   76  A    between atoms: _189  and  _190
REMARK   77  A    between atoms: _189  and  _192
REMARK   78  A    between atoms: _192  and  _193
REMARK   79  A    between atoms: _196  and  _198
REMARK   80  A    between atoms: _198  and  _199
REMARK   81  A    between atoms: _198  and  _201
REMARK   82  A    between atoms: _204  and  _206
REMARK   83  A    between atoms: _206  and  _207
REMARK   84  A    between atoms: _210  and  _212
REMARK   85  A    between atoms: _212  and  _213
REMARK   86  A    between atoms: _212  and  _215
REMARK   87  A    between atoms: _215  and  _216
REMARK   88  A    between atoms: _219  and  _221
REMARK   89  A    between atoms: _221  and  _222
REMARK   90  A    between atoms: _221  and  _224
REMARK   91  A    between atoms: _224  and  _225
REMARK   92  A    between atoms: _228  and  _230
REMARK   93  A    between atoms: _230  and  _231
REMARK   94  A    between atoms: _230  and  _233
REMARK   95  A    between atoms: _233  and  _234
REMARK   96  A    between atoms: _239  and  _240
REMARK   97  A    between atoms: _242  and  _244
REMARK   98  A    between atoms: _244  and  _245
REMARK   99  A    between atoms: _244  and  _247
REMARK  100  A    between atoms: _247  and  _248
REMARK  101  A    between atoms: _253  and  _254
REMARK  102  A    between atoms: _256  and  _258
REMARK  103  A    between atoms: _258  and  _259
REMARK  104  A    between atoms: _258  and  _261
REMARK  105  A    between atoms: _261  and  _262
REMARK  106  A    between atoms: _265  and  _267
REMARK  107  A    between atoms: _267  and  _268
REMARK  108  A    between atoms: _267  and  _270
REMARK  109  A    between atoms: _270  and  _271
REMARK  110  A    between atoms: _273  and  _275
REMARK  111  A    between atoms: _275  and  _276
REMARK  112  A    between atoms: _275  and  _278
REMARK  113  A    between atoms: _278  and  _279
REMARK  114  A    between atoms: _279  and  _280
REMARK  115  A    between atoms: _280  and  _281
REMARK  116  A    between atoms: _290  and  _292
REMARK  117  A    between atoms: _292  and  _293
REMARK  118  A    between atoms: _295  and  _297
REMARK  119  A    between atoms: _297  and  _298
REMARK  120  A    between atoms: _297  and  _300
REMARK  121  A    between atoms: _303  and  _305
REMARK  122  A    between atoms: _305  and  _306
REMARK  123  A    between atoms: _305  and  _308
REMARK  124  A    between atoms: _308  and  _309
REMARK  125  A    between atoms: _312  and  _314
REMARK  126  A    between atoms: _314  and  _315
REMARK  127  A    between atoms: _317  and  _319
REMARK  128  A    between atoms: _319  and  _320
REMARK  129  A    between atoms: _323  and  _325
REMARK  130  A    between atoms: _325  and  _326
REMARK  131  A    between atoms: _325  and  _328
REMARK  132  A    between atoms: _328  and  _329
REMARK  133  A    between atoms: _329  and  _330
REMARK  134  A    between atoms: _333  and  _335
REMARK  135  A    between atoms: _335  and  _336
REMARK  136  A    between atoms: _335  and  _338
REMARK  137  A    between atoms: _338  and  _339
REMARK  138  A    between atoms: _344  and  _346
REMARK  139  A    between atoms: _346  and  _347
REMARK  140  A    between atoms: _346  and  _349
REMARK  141  A    between atoms: _349  and  _350
REMARK  142  A    between atoms: _350  and  _351
REMARK  143  A    between atoms: _351  and  _352
REMARK  144  A    between atoms: _361  and  _363
REMARK  145  A    between atoms: _363  and  _364
REMARK  146  A    between atoms: _366  and  _368
REMARK  147  A    between atoms: _368  and  _369
REMARK  148  A    between atoms: _368  and  _371
REMARK  149  A    between atoms: _371  and  _372
REMARK  150  A    between atoms: _375  and  _377
REMARK  151  A    between atoms: _377  and  _378
REMARK  152  A    between atoms: _377  and  _380
REMARK  153  A    between atoms: _380  and  _381
REMARK  154  A    between atoms: _381  and  _382
REMARK  155  A    between atoms: _387  and  _389
REMARK  156  A    between atoms: _389  and  _390
REMARK  157  A    between atoms: _392  and  _394
REMARK  158  A    between atoms: _394  and  _395
REMARK  159  A    between atoms: _394  and  _397
REMARK  160  A    between atoms: _397  and  _398
REMARK  161  A    between atoms: _404  and  _406
REMARK  162  A    between atoms: _406  and  _407
REMARK  163  A    between atoms: _409  and  _411
REMARK  164  A    between atoms: _411  and  _412
REMARK  165  A    between atoms: _411  and  _414
REMARK  166  A    between atoms: _414  and  _415
REMARK  167  A    between atoms: _418  and  _420
REMARK  168  A    between atoms: _420  and  _421
REMARK  169  A    between atoms: _420  and  _423
REMARK  170  A    between atoms: _423  and  _424
REMARK  171  A    between atoms: _426  and  _428
REMARK  172  A    between atoms: _428  and  _429
REMARK  173  A    between atoms: _428  and  _431
REMARK  174  A    between atoms: _431  and  _432
REMARK  175  A    between atoms: _432  and  _433
REMARK  176  A    between atoms: _438  and  _440
REMARK  177  A    between atoms: _440  and  _441
REMARK  178  A    between atoms: _440  and  _443
REMARK  179  A    between atoms: _443  and  _444
REMARK  180  A    between atoms: _447  and  _449
REMARK  181  A    between atoms: _449  and  _450
REMARK  182  A    between atoms: _449  and  _452
REMARK  183  A    between atoms: _452  and  _453
REMARK  184  A    between atoms: _455  and  _457
REMARK  185  A    between atoms: _457  and  _458
REMARK  186  A    between atoms: _460  and  _462
REMARK  187  A    between atoms: _462  and  _463
REMARK  188  A    between atoms: _462  and  _465
REMARK  189  A    between atoms: _465  and  _466
REMARK  190  A    between atoms: _468  and  _470
REMARK  191  A    between atoms: _470  and  _471
REMARK  192  A    between atoms: _474  and  _476
REMARK  193  A    between atoms: _476  and  _477
REMARK  194  A    between atoms: _476  and  _479
REMARK  195  A    between atoms: _479  and  _480
REMARK  196  A    between atoms: _483  and  _485
REMARK  197  A    between atoms: _485  and  _486
REMARK  198  A    between atoms: _485  and  _488
REMARK  199  A    between atoms: _491  and  _493
REMARK  200  A    between atoms: _493  and  _494
REMARK  201  A    between atoms: _493  and  _496
REMARK  202  A    between atoms: _496  and  _497
REMARK  203  A    between atoms: _497  and  _498
REMARK  204  A    between atoms: _498  and  _499
REMARK  205  A    between atoms: _499  and  _500
REMARK  206  A    between atoms: _505  and  _506
REMARK                            x       y       z     vdW  Elec       q    Type
REMARK                         _______ _______ _______ _____ _____    ______ ____
ROOT
ATOM      1  CA  GLU A   6      50.231  31.728   1.531  0.00  0.00    +0.149 C 
ENDROOT
BRANCH   1   2
ATOM      2  C   GLU A   6      50.059  30.320   0.967  0.00  0.00    +0.241 C 
ATOM      3  N   ASN A   7      49.565  29.391   1.786  0.00  0.00    -0.297 N 
ATOM      4  H   ASN A   7      49.333  29.638   2.769  0.00  0.00    +0.150 HD
ATOM      5  O   GLU A   6      50.369  30.075  -0.211  0.00  0.00    -0.273 OA
BRANCH   3   6
ATOM      6  CA  ASN A   7      49.349  28.034   1.309  0.00  0.00    +0.158 C 
BRANCH   6   7
ATOM      7  C   ASN A   7      47.986  27.512   1.796  0.00  0.00    +0.241 C 
ATOM      8  O   ASN A   7      47.835  27.137   2.959  0.00  0.00    -0.273 OA
ATOM      9  N   ARG A   8      46.982  27.496   0.923  0.00  0.00    -0.297 N 
ATOM     10  H   ARG A   8      47.141  27.808  -0.056  0.00  0.00    +0.150 HD
BRANCH   9  11
ATOM     11  CA  ARG A   8      45.662  27.043   1.336  0.00  0.00    +0.149 C 
BRANCH  11  12
ATOM     12  C   ARG A   8      45.453  25.545   1.217  0.00  0.00    +0.241 C 
ATOM     13  N   GLY A   9      44.780  24.970   2.197  0.00  0.00    -0.296 N 
ATOM     14  H   GLY A   9      44.448  25.533   3.006  0.00  0.00    +0.150 HD
ATOM     15  O   ARG A   8      45.915  24.909   0.268  0.00  0.00    -0.273 OA
BRANCH  13  16
ATOM     16  CA  GLY A   9      44.508  23.550   2.137  0.00  0.00    +0.163 C 
BRANCH  16  17
ATOM     17  C   GLY A   9      43.298  23.401   1.236  0.00  0.00    +0.229 C 
ATOM     18  O   GLY A   9      42.361  24.198   1.321  0.00  0.00    -0.286 OA
ENDBRANCH  16  17
ENDBRANCH  13  16
ENDBRANCH  11  12
BRANCH  11  19
ATOM     19  CB  ARG A   8      44.577  27.762   0.529  0.00  0.00    +0.033 C 
BRANCH  19  20
ATOM     20  CG  ARG A   8      44.598  29.272   0.725  0.00  0.00    +0.045 C 
BRANCH  20  21
ATOM     21  CD  ARG A   8      43.377  29.931   0.110  0.00  0.00    +0.174 C 
BRANCH  21  22
ATOM     22  NE  ARG A   8      43.369  31.359   0.401  0.00  0.00    -0.265 N 
ATOM     23  HE  ARG A   8      44.248  31.788   0.753  0.00  0.00    +0.259 HD
ATOM     24  CZ  ARG A   8      42.313  32.148   0.246  0.00  0.00    +0.342 C 
ATOM     25  NH2 ARG A   8      42.398  33.435   0.546  0.00  0.00    -0.292 N 
ATOM     26 HH21 ARG A   8      43.292  33.828   0.903  0.00  0.00    +0.255 HD
ATOM     27 HH22 ARG A   8      41.570  34.053   0.424  0.00  0.00    +0.255 HD
ATOM     28  NH1 ARG A   8      41.167  31.641  -0.199  0.00  0.00    -0.292 N 
ATOM     29 HH11 ARG A   8      40.338  32.257  -0.321  0.00  0.00    +0.255 HD
ATOM     30 HH12 ARG A   8      41.099  30.628  -0.425  0.00  0.00    +0.255 HD
ENDBRANCH  21  22
ENDBRANCH  20  21
ENDBRANCH  19  20
ENDBRANCH  11  19
ENDBRANCH   9  11
ENDBRANCH   6   7
BRANCH   6  31
ATOM     31  CB  ASN A   7      50.483  27.135   1.808  0.00  0.00    +0.114 C 
BRANCH  31  32
ATOM     32  CG  ASN A   7      50.548  25.841   1.057  0.00  0.00    +0.222 C 
ATOM     33  OD1 ASN A   7      49.536  25.153   0.894  0.00  0.00    -0.275 OA
ATOM     34  ND2 ASN A   7      51.745  25.500   0.554  0.00  0.00    -0.329 N 
ATOM     35 HD21 ASN A   7      52.571  26.111   0.717  0.00  0.00    +0.145 HD
ATOM     36 HD22 ASN A   7      51.847  24.625   0.001  0.00  0.00    +0.145 HD
ENDBRANCH  31  32
ENDBRANCH   6  31
ENDBRANCH   3   6
ENDBRANCH   1   2
BRANCH   1  38
ATOM     37  C   ALA A   5      48.796  31.879   3.465  0.00  0.00    +0.241 C 
ATOM     38  N   GLU A   6      50.028  31.824   2.979  0.00  0.00    -0.297 N 
ATOM     39  H   GLU A   6      50.845  31.849   3.621  0.00  0.00    +0.150 HD
ATOM     40  O   ALA A   5      47.803  31.793   2.749  0.00  0.00    -0.273 OA
BRANCH  37  41
ATOM     41  CA  ALA A   5      48.649  32.028   4.981  0.00  0.00    +0.149 C 
ATOM     42  CB  ALA A   5      48.398  33.521   5.344  0.00  0.00    +0.031 C 
BRANCH  41  44
ATOM     43  C   GLY A   4      50.139  30.258   5.763  0.00  0.00    +0.243 C 
ATOM     44  N   ALA A   5      49.831  31.549   5.673  0.00  0.00    -0.297 N 
ATOM     45  H   ALA A   5      50.464  32.244   6.117  0.00  0.00    +0.150 HD
ATOM     46  O   GLY A   4      49.460  29.369   5.282  0.00  0.00    -0.273 OA
BRANCH  43  47
ATOM     47  CA  GLY A   4      51.396  29.880   6.506  0.00  0.00    +0.176 C 
BRANCH  47  50
ATOM     48  C   THR A   3      52.238  28.166   8.014  0.00  0.00    +0.243 C 
ATOM     49  O   THR A   3      53.397  28.336   7.620  0.00  0.00    -0.273 OA
ATOM     50  N   GLY A   4      51.187  28.810   7.501  0.00  0.00    -0.295 N 
ATOM     51  H   GLY A   4      50.224  28.558   7.802  0.00  0.00    +0.150 HD
BRANCH  48  52
ATOM     52  CA  THR A   3      51.924  27.134   9.107  0.00  0.00    +0.176 C 
BRANCH  52  54
ATOM     53  C   VAL A   2      53.033  25.295   7.981  0.00  0.00    +0.241 C 
ATOM     54  N   THR A   3      52.889  26.033   9.091  0.00  0.00    -0.295 N 
ATOM     55  H   THR A   3      53.459  25.825   9.935  0.00  0.00    +0.150 HD
ATOM     56  O   VAL A   2      52.414  25.531   6.935  0.00  0.00    -0.273 OA
BRANCH  53  57
ATOM     57  CA  VAL A   2      54.021  24.128   8.044  0.00  0.00    +0.148 C 
BRANCH  57  60
ATOM     58  C   GLY A   1      53.560  22.006   6.830  0.00  0.00    +0.240 C 
ATOM     59  O   GLY A   1      53.314  21.383   7.874  0.00  0.00    -0.274 OA
ATOM     60  N   VAL A   2      53.901  23.299   6.811  0.00  0.00    -0.297 N 
ATOM     61  H   VAL A   2      54.092  23.747   5.892  0.00  0.00    +0.150 HD
BRANCH  58  62
ATOM     62  CA  GLY A   1      53.505  21.299   5.485  0.00  0.00    +0.169 C 
BRANCH  62  63
ATOM     63  N   GLY A   1      52.683  20.096   5.506  0.00  0.00    -0.236 NA
ATOM     64  H   GLY A   1      53.100  19.184   5.781  0.00  0.00    +0.142 HD
ENDBRANCH  62  63
ENDBRANCH  58  62
ENDBRANCH  57  60
BRANCH  57  65
ATOM     65  CB  VAL A   2      55.485  24.680   8.234  0.00  0.00    +0.027 C 
ATOM     66  CG2 VAL A   2      56.449  23.456   8.486  0.00  0.00    +0.002 C 
ATOM     67  CG1 VAL A   2      55.921  25.511   7.030  0.00  0.00    +0.002 C 
ENDBRANCH  57  65
ENDBRANCH  53  57
ENDBRANCH  52  54
BRANCH  52  68
ATOM     68  CB  THR A   3      51.919  27.857  10.484  0.00  0.00    +0.137 C 
ATOM     69  CG2 THR A   3      51.560  26.895  11.598  0.00  0.00    +0.034 C 
BRANCH  68  70
ATOM     70  OG1 THR A   3      53.215  28.433  10.741  0.00  0.00    -0.382 OA
ATOM     71  HG1 THR A   3      53.431  29.086  10.029  0.00  0.00    +0.210 HD
ENDBRANCH  68  70
ENDBRANCH  52  68
ENDBRANCH  48  52
ENDBRANCH  47  50
ENDBRANCH  43  47
ENDBRANCH  41  44
ENDBRANCH  37  41
ENDBRANCH   1  38
BRANCH   1  72
ATOM     72  CB  GLU A   6      51.617  32.264   1.154  0.00  0.00    +0.041 C 
BRANCH  72  73
ATOM     73  CG  GLU A   6      52.463  32.693   2.338  0.00  0.00    +0.116 C 
BRANCH  73  74
ATOM     74  CD  GLU A   6      52.859  31.510   3.203  0.00  0.00    +0.365 C 
ATOM     75  OE2 GLU A   6      53.497  31.719   4.253  0.00  0.00    -0.246 OA
ATOM     76  OE1 GLU A   6      52.525  30.359   2.824  0.00  0.00    -0.246 OA
ENDBRANCH  73  74
ENDBRANCH  72  73
ENDBRANCH   1  72
TORSDOF 30
REMARK  Name = ../refined-set-2016/1tjp/1tjp_pocket.pdb
REMARK  206 active torsions:
REMARK  status: ('A' for Active; 'I' for Inactive)
REMARK    1  A    between atoms: _1  and  _3
REMARK    2  A    between atoms: _3  and  _4
REMARK    3  A    between atoms: _3  and  _6
REMARK    4  A    between atoms: _10  and  _11
REMARK    5  A    between atoms: _16  and  _18
REMARK    6  A    between atoms: _18  and  _19
REMARK    7  A    between atoms: _18  and  _21
REMARK    8  A    between atoms: _21  and  _22
REMARK    9  A    between atoms: _28  and  _30
REMARK   10  A    between atoms: _30  and  _31
REMARK   11  A    between atoms: _30  and  _33
REMARK   12  A    between atoms: _36  and  _38
REMARK   13  A    between atoms: _38  and  _39
REMARK   14  A    between atoms: _38  and  _41
REMARK   15  A    between atoms: _41  and  _42
REMARK   16  A    between atoms: _45  and  _47
REMARK   17  A    between atoms: _47  and  _48
REMARK   18  A    between atoms: _47  and  _50
REMARK   19  A    between atoms: _50  and  _51
REMARK   20  A    between atoms: _51  and  _52
REMARK   21  A    between atoms: _55  and  _57
REMARK   22  A    between atoms: _57  and  _58
REMARK   23  A    between atoms: _57  and  _60
REMARK   24  A    between atoms: _60  and  _61
REMARK   25  A    between atoms: _64  and  _66
REMARK   26  A    between atoms: _66  and  _67
REMARK   27  A    between atoms: _70  and  _71
REMARK   28  A    between atoms: _76  and  _78
REMARK   29  A    between atoms: _78  and  _79
REMARK   30  A    between atoms: _78  and  _81
REMARK   31  A    between atoms: _81  and  _82
REMARK   32  A    between atoms: _85  and  _87
REMARK   33  A    between atoms: _87  and  _88
REMARK   34  A    between atoms: _91  and  _93
REMARK   35  A    between atoms: _93  and  _94
REMARK   36  A    between atoms: _93  and  _96
REMARK   37  A    between atoms: _96  and  _97
REMARK   38  A    between atoms: _100  and  _102
REMARK   39  A    between atoms: _102  and  _103
REMARK   40  A    between atoms: _105  and  _107
REMARK   41  A    between atoms: _107  and  _108
REMARK   42  A    between atoms: _107  and  _110
REMARK   43  A    between atoms: _110  and  _111
REMARK   44  A    between atoms: _114  and  _116
REMARK   45  A    between atoms: _116  and  _117
REMARK   46  A    between atoms: _116  and  _119
REMARK   47  A    between atoms: _119  and  _120
REMARK   48  A    between atoms: _123  and  _125
REMARK   49  A    between atoms: _125  and  _126
REMARK   50  A    between atoms: _125  and  _128
REMARK   51  A    between atoms: _128  and  _129
REMARK   52  A    between atoms: _129  and  _130
REMARK   53  A    between atoms: _135  and  _137
REMARK   54  A    between atoms: _137  and  _138
REMARK   55  A    between atoms: _137  and  _140
REMARK   56  A    between atoms: _140  and  _141
REMARK   57  A    between atoms: _146  and  _148
REMARK   58  A    between atoms: _148  and  _149
REMARK   59  A    between atoms: _148  and  _151
REMARK   60  A    between atoms: _151  and  _152
REMARK   61  A    between atoms: _155  and  _157
REMARK   62  A    between atoms: _157  and  _158
REMARK   63  A    between atoms: _157  and  _160
REMARK   64  A    between atoms: _160  and  _161
REMARK   65  A    between atoms: _164  and  _166
REMARK   66  A    between atoms: _166  and  _167
REMARK   67  A    between atoms: _166  and  _169
REMARK   68  A    between atoms: _169  and  _170
REMARK   69  A    between atoms: _170  and  _171
REMARK   70  A    between atoms: _173  and  _175
REMARK   71  A    between atoms: _175  and  _176
REMARK   72  A    between atoms: _175  and  _178
REMARK   73  A    between atoms: _178  and  _179
REMARK   74  A    between atoms: _184  and  _185
REMARK   75  A    between atoms: _187  and  _189
REMARK   76  A    between atoms: _189  and  _190
REMARK   77  A    between atoms: _189  and  _192
REMARK   78  A    between atoms: _192  and  _193
REMARK   79  A    between atoms: _196  and  _198
REMARK   80  A    between atoms: _198  and  _199
REMARK   81  A    between atoms: _198  and  _201
REMARK   82  A    between atoms: _204  and  _206
REMARK   83  A    between atoms: _206  and  _207
REMARK   84  A    between atoms: _210  and  _212
REMARK   85  A    between atoms: _212  and  _213
REMARK   86  A    between atoms: _212  and  _215
REMARK   87  A    between atoms: _215  and  _216
REMARK   88  A    between atoms: _219  and  _221
REMARK   89  A    between atoms: _221  and  _222
REMARK   90  A    between atoms: _221  and  _224
REMARK   91  A    between atoms: _224  and  _225
REMARK   92  A    between atoms: _228  and  _230
REMARK   93  A    between atoms: _230  and  _231
REMARK   94  A    between atoms: _230  and  _233
REMARK   95  A    between atoms: _233  and  _234
REMARK   96  A    between atoms: _239  and  _240
REMARK   97  A    between atoms: _242  and  _244
REMARK   98  A    between atoms: _244  and  _245
REMARK   99  A    between atoms: _244  and  _247
REMARK  100  A    between atoms: _247  and  _248
REMARK  101  A    between atoms: _253  and  _254
REMARK  102  A    between atoms: _256  and  _258
REMARK  103  A    between atoms: _258  and  _259
REMARK  104  A    between atoms: _258  and  _261
REMARK  105  A    between atoms: _261  and  _262
REMARK  106  A    between atoms: _265  and  _267
REMARK  107  A    between atoms: _267  and  _268
REMARK  108  A    between atoms: _267  and  _270
REMARK  109  A    between atoms: _270  and  _271
REMARK  110  A    between atoms: _273  and  _275
REMARK  111  A    between atoms: _275  and  _276
REMARK  112  A    between atoms: _275  and  _278
REMARK  113  A    between atoms: _278  and  _279
REMARK  114  A    between atoms: _279  and  _280
REMARK  115  A    between atoms: _280  and  _281
REMARK  116  A    between atoms: _290  and  _292
REMARK  117  A    between atoms: _292  and  _293
REMARK  118  A    between atoms: _295  and  _297
REMARK  119  A    between atoms: _297  and  _298
REMARK  120  A    between atoms: _297  and  _300
REMARK  121  A    between atoms: _303  and  _305
REMARK  122  A    between atoms: _305  and  _306
REMARK  123  A    between atoms: _305  and  _308
REMARK  124  A    between atoms: _308  and  _309
REMARK  125  A    between atoms: _312  and  _314
REMARK  126  A    between atoms: _314  and  _315
REMARK  127  A    between atoms: _317  and  _319
REMARK  128  A    between atoms: _319  and  _320
REMARK  129  A    between atoms: _323  and  _325
REMARK  130  A    between atoms: _325  and  _326
REMARK  131  A    between atoms: _325  and  _328
REMARK  132  A    between atoms: _328  and  _329
REMARK  133  A    between atoms: _329  and  _330
REMARK  134  A    between atoms: _333  and  _335
REMARK  135  A    between atoms: _335  and  _336
REMARK  136  A    between atoms: _335  and  _338
REMARK  137  A    between atoms: _338  and  _339
REMARK  138  A    between atoms: _344  and  _346
REMARK  139  A    between atoms: _346  and  _347
REMARK  140  A    between atoms: _346  and  _349
REMARK  141  A    between atoms: _349  and  _350
REMARK  142  A    between atoms: _350  and  _351
REMARK  143  A    between atoms: _351  and  _352
REMARK  144  A    between atoms: _361  and  _363
REMARK  145  A    between atoms: _363  and  _364
REMARK  146  A    between atoms: _366  and  _368
REMARK  147  A    between atoms: _368  and  _369
REMARK  148  A    between atoms: _368  and  _371
REMARK  149  A    between atoms: _371  and  _372
REMARK  150  A    between atoms: _375  and  _377
REMARK  151  A    between atoms: _377  and  _378
REMARK  152  A    between atoms: _377  and  _380
REMARK  153  A    between atoms: _380  and  _381
REMARK  154  A    between atoms: _381  and  _382
REMARK  155  A    between atoms: _387  and  _389
REMARK  156  A    between atoms: _389  and  _390
REMARK  157  A    between atoms: _392  and  _394
REMARK  158  A    between atoms: _394  and  _395
REMARK  159  A    between atoms: _394  and  _397
REMARK  160  A    between atoms: _397  and  _398
REMARK  161  A    between atoms: _404  and  _406
REMARK  162  A    between atoms: _406  and  _407
REMARK  163  A    between atoms: _409  and  _411
REMARK  164  A    between atoms: _411  and  _412
REMARK  165  A    between atoms: _411  and  _414
REMARK  166  A    between atoms: _414  and  _415
REMARK  167  A    between atoms: _418  and  _420
REMARK  168  A    between atoms: _420  and  _421
REMARK  169  A    between atoms: _420  and  _423
REMARK  170  A    between atoms: _423  and  _424
REMARK  171  A    between atoms: _426  and  _428
REMARK  172  A    between atoms: _428  and  _429
REMARK  173  A    between atoms: _428  and  _431
REMARK  174  A    between atoms: _431  and  _432
REMARK  175  A    between atoms: _432  and  _433
REMARK  176  A    between atoms: _438  and  _440
REMARK  177  A    between atoms: _440  and  _441
REMARK  178  A    between atoms: _440  and  _443
REMARK  179  A    between atoms: _443  and  _444
REMARK  180  A    between atoms: _447  and  _449
REMARK  181  A    between atoms: _449  and  _450
REMARK  182  A    between atoms: _449  and  _452
REMARK  183  A    between atoms: _452  and  _453
REMARK  184  A    between atoms: _455  and  _457
REMARK  185  A    between atoms: _457  and  _458
REMARK  186  A    between atoms: _460  and  _462
REMARK  187  A    between atoms: _462  and  _463
REMARK  188  A    between atoms: _462  and  _465
REMARK  189  A    between atoms: _465  and  _466
REMARK  190  A    between atoms: _468  and  _470
REMARK  191  A    between atoms: _470  and  _471
REMARK  192  A    between atoms: _474  and  _476
REMARK  193  A    between atoms: _476  and  _477
REMARK  194  A    between atoms: _476  and  _479
REMARK  195  A    between atoms: _479  and  _480
REMARK  196  A    between atoms: _483  and  _485
REMARK  197  A    between atoms: _485  and  _486
REMARK  198  A    between atoms: _485  and  _488
REMARK  199  A    between atoms: _491  and  _493
REMARK  200  A    between atoms: _493  and  _494
REMARK  201  A    between atoms: _493  and  _496
REMARK  202  A    between atoms: _496  and  _497
REMARK  203  A    between atoms: _497  and  _498
REMARK  204  A    between atoms: _498  and  _499
REMARK  205  A    between atoms: _499  and  _500
REMARK  206  A    between atoms: _505  and  _506
REMARK                            x       y       z     vdW  Elec       q    Type
REMARK                         _______ _______ _______ _____ _____    ______ ____
ROOT
ATOM      1  CA  PHE A   4      46.618  25.973   8.669  0.00  0.00    +0.153 C 
ENDROOT
BRANCH   1   2
ATOM      2  C   PHE A   4      46.079  26.540   7.359  0.00  0.00    +0.241 C 
ATOM      3  N   GLY A   5      46.635  27.684   6.964  0.00  0.00    -0.295 N 
ATOM      4  H   GLY A   5      47.345  28.142   7.571  0.00  0.00    +0.150 HD
ATOM      5  O   PHE A   4      45.173  25.970   6.747  0.00  0.00    -0.273 OA
BRANCH   3   6
ATOM      6  CA  GLY A   5      46.263  28.316   5.679  0.00  0.00    +0.176 C 
BRANCH   6   7
ATOM      7  C   GLY A   5      44.930  29.055   5.666  0.00  0.00    +0.243 C 
ATOM      8  N   ILE A   6      44.238  29.166   6.802  0.00  0.00    -0.297 N 
ATOM      9  H   ILE A   6      44.616  28.757   7.680  0.00  0.00    +0.150 HD
ATOM     10  O   GLY A   5      44.523  29.510   4.583  0.00  0.00    -0.273 OA
BRANCH   8  11
ATOM     11  CA  ILE A   6      42.923  29.875   6.819  0.00  0.00    +0.149 C 
BRANCH  11  12
ATOM     12  C   ILE A   6      43.192  31.389   6.896  0.00  0.00    +0.241 C 
ATOM     13  O   ILE A   6      43.664  31.906   7.949  0.00  0.00    -0.273 OA
ATOM     14  N   SER A   7      42.866  32.116   5.814  0.00  0.00    -0.296 N 
ATOM     15  H   SER A   7      42.403  31.654   5.005  0.00  0.00    +0.150 HD
BRANCH  14  16
ATOM     16  CA  SER A   7      43.155  33.549   5.760  0.00  0.00    +0.166 C 
BRANCH  16  17
ATOM     17  CB  SER A   7      42.031  34.431   5.206  0.00  0.00    +0.229 C 
ATOM     18  OG  SER A   7      42.207  35.660   5.065  0.00  0.00    -0.286 OA
ENDBRANCH  16  17
BRANCH  16  19
ATOM     19  C   SER A   7      44.386  33.781   4.879  0.00  0.00    +0.165 C 
BRANCH  19  20
ATOM     20  O   SER A   7      44.077  33.449   3.512  0.00  0.00    -0.380 OA
ATOM     21  H   SER A   7      43.809  32.498   3.457  0.00  0.00    +0.211 HD
ENDBRANCH  19  20
ENDBRANCH  16  19
ENDBRANCH  14  16
ENDBRANCH  11  12
BRANCH  11  22
ATOM     22  CB  ILE A   6      42.074  29.481   8.064  0.00  0.00    +0.027 C 
ATOM     23  CG2 ILE A   6      40.705  30.233   8.031  0.00  0.00    +0.002 C 
BRANCH  22  24
ATOM     24  CG1 ILE A   6      41.870  27.959   8.123  0.00  0.00    +0.002 C 
ATOM     25  CD1 ILE A   6      41.030  27.425   7.004  0.00  0.00    +0.000 C 
ENDBRANCH  22  24
ENDBRANCH  11  22
ENDBRANCH   8  11
ENDBRANCH   6   7
ENDBRANCH   3   6
ENDBRANCH   1   2
BRANCH   1  27
ATOM     26  C   GLY A   3      44.823  24.888  10.051  0.00  0.00    +0.243 C 
ATOM     27  N   PHE A   4      45.568  25.952   9.692  0.00  0.00    -0.297 N 
ATOM     28  H   PHE A   4      45.380  26.846  10.189  0.00  0.00    +0.150 HD
ATOM     29  O   GLY A   3      44.995  23.696   9.671  0.00  0.00    -0.273 OA
BRANCH  26  30
ATOM     30  CA  GLY A   3      43.761  25.202  11.079  0.00  0.00    +0.176 C 
BRANCH  30  33
ATOM     31  C   GLN A   2      41.397  24.688  11.298  0.00  0.00    +0.241 C 
ATOM     32  O   GLN A   2      41.111  25.876  11.511  0.00  0.00    -0.273 OA
ATOM     33  N   GLY A   3      42.637  24.263  11.086  0.00  0.00    -0.295 N 
ATOM     34  H   GLY A   3      42.812  23.251  10.923  0.00  0.00    +0.150 HD
BRANCH  31  35
ATOM     35  CA  GLN A   2      40.336  23.624  11.268  0.00  0.00    +0.149 C 
BRANCH  35  38
ATOM     36  C   LEU A   1      39.701  23.242  13.601  0.00  0.00    +0.238 C 
ATOM     37  O   LEU A   1      40.733  22.580  13.803  0.00  0.00    -0.274 OA
ATOM     38  N   GLN A   2      39.398  23.745  12.410  0.00  0.00    -0.297 N 
ATOM     39  H   GLN A   2      38.489  24.231  12.276  0.00  0.00    +0.150 HD
BRANCH  36  40
ATOM     40  CA  LEU A   1      38.693  23.440  14.712  0.00  0.00    +0.145 C 
BRANCH  40  41
ATOM     41  N   LEU A   1      38.365  22.060  15.170  0.00  0.00    -0.238 NA
ATOM     42  H   LEU A   1      39.117  21.476  15.587  0.00  0.00    +0.142 HD
ENDBRANCH  40  41
BRANCH  40  43
ATOM     43  CB  LEU A   1      39.331  24.315  15.792  0.00  0.00    +0.026 C 
BRANCH  43  44
ATOM     44  CG  LEU A   1      38.392  24.675  16.929  0.00  0.00    +0.002 C 
ATOM     45  CD2 LEU A   1      39.197  25.520  17.885  0.00  0.00    +0.000 C 
ATOM     46  CD1 LEU A   1      37.127  25.431  16.449  0.00  0.00    +0.000 C 
ENDBRANCH  43  44
ENDBRANCH  40  43
ENDBRANCH  36  40
ENDBRANCH  35  38
BRANCH  35  47
ATOM     47  CB  GLN A   2      39.613  23.717   9.924  0.00  0.00    +0.039 C 
BRANCH  47  48
ATOM     48  CG  GLN A   2      40.495  23.334   8.751  0.00  0.00    +0.087 C 
BRANCH  48  49
ATOM     49  CD  GLN A   2      39.726  23.430   7.466  0.00  0.00    +0.219 C 
ATOM     50  OE1 GLN A   2      38.507  23.160   7.440  0.00  0.00    -0.275 OA
ATOM     51  NE2 GLN A   2      40.412  23.790   6.399  0.00  0.00    -0.329 N 
ATOM     52 HE21 GLN A   2      41.427  24.003   6.481  0.00  0.00    +0.145 HD
ATOM     53 HE22 GLN A   2      39.938  23.861   5.476  0.00  0.00    +0.145 HD
ENDBRANCH  48  49
ENDBRANCH  47  48
ENDBRANCH  35  47
ENDBRANCH  31  35
ENDBRANCH  30  33
ENDBRANCH  26  30
ENDBRANCH   1  27
BRANCH   1  54
ATOM     54  CB  PHE A   4      47.207  24.576   8.410  0.00  0.00    +0.055 C 
BRANCH  54  55
ATOM     55  CG  PHE A   4      48.357  24.213   9.315  0.00  0.00    -0.020 A 
ATOM     56  CD2 PHE A   4      48.255  24.369  10.692  0.00  0.00    -0.004 A 
ATOM     57  CE2 PHE A   4      49.301  23.994  11.535  0.00  0.00    -0.000 A 
ATOM     58  CZ  PHE A   4      50.468  23.457  11.001  0.00  0.00    -0.000 A 
ATOM     59  CE1 PHE A   4      50.586  23.297   9.621  0.00  0.00    -0.000 A 
ATOM     60  CD1 PHE A   4      49.532  23.676   8.787  0.00  0.00    -0.004 A 
ENDBRANCH  54  55
ENDBRANCH   1  54
TORSDOF 25
REMARK  Name = ../refined-set-2016/1tjp/1tjp_pocket.pdb
REMARK  206 active torsions:
REMARK  status: ('A' for Active; 'I' for Inactive)
REMARK    1  A    between atoms: _1  and  _3
REMARK    2  A    between atoms: _3  and  _4
REMARK    3  A    between atoms: _3  and  _6
REMARK    4  A    between atoms: _10  and  _11
REMARK    5  A    between atoms: _16  and  _18
REMARK    6  A    between atoms: _18  and  _19
REMARK    7  A    between atoms: _18  and  _21
REMARK    8  A    between atoms: _21  and  _22
REMARK    9  A    between atoms: _28  and  _30
REMARK   10  A    between atoms: _30  and  _31
REMARK   11  A    between atoms: _30  and  _33
REMARK   12  A    between atoms: _36  and  _38
REMARK   13  A    between atoms: _38  and  _39
REMARK   14  A    between atoms: _38  and  _41
REMARK   15  A    between atoms: _41  and  _42
REMARK   16  A    between atoms: _45  and  _47
REMARK   17  A    between atoms: _47  and  _48
REMARK   18  A    between atoms: _47  and  _50
REMARK   19  A    between atoms: _50  and  _51
REMARK   20  A    between atoms: _51  and  _52
REMARK   21  A    between atoms: _55  and  _57
REMARK   22  A    between atoms: _57  and  _58
REMARK   23  A    between atoms: _57  and  _60
REMARK   24  A    between atoms: _60  and  _61
REMARK   25  A    between atoms: _64  and  _66
REMARK   26  A    between atoms: _66  and  _67
REMARK   27  A    between atoms: _70  and  _71
REMARK   28  A    between atoms: _76  and  _78
REMARK   29  A    between atoms: _78  and  _79
REMARK   30  A    between atoms: _78  and  _81
REMARK   31  A    between atoms: _81  and  _82
REMARK   32  A    between atoms: _85  and  _87
REMARK   33  A    between atoms: _87  and  _88
REMARK   34  A    between atoms: _91  and  _93
REMARK   35  A    between atoms: _93  and  _94
REMARK   36  A    between atoms: _93  and  _96
REMARK   37  A    between atoms: _96  and  _97
REMARK   38  A    between atoms: _100  and  _102
REMARK   39  A    between atoms: _102  and  _103
REMARK   40  A    between atoms: _105  and  _107
REMARK   41  A    between atoms: _107  and  _108
REMARK   42  A    between atoms: _107  and  _110
REMARK   43  A    between atoms: _110  and  _111
REMARK   44  A    between atoms: _114  and  _116
REMARK   45  A    between atoms: _116  and  _117
REMARK   46  A    between atoms: _116  and  _119
REMARK   47  A    between atoms: _119  and  _120
REMARK   48  A    between atoms: _123  and  _125
REMARK   49  A    between atoms: _125  and  _126
REMARK   50  A    between atoms: _125  and  _128
REMARK   51  A    between atoms: _128  and  _129
REMARK   52  A    between atoms: _129  and  _130
REMARK   53  A    between atoms: _135  and  _137
REMARK   54  A    between atoms: _137  and  _138
REMARK   55  A    between atoms: _137  and  _140
REMARK   56  A    between atoms: _140  and  _141
REMARK   57  A    between atoms: _146  and  _148
REMARK   58  A    between atoms: _148  and  _149
REMARK   59  A    between atoms: _148  and  _151
REMARK   60  A    between atoms: _151  and  _152
REMARK   61  A    between atoms: _155  and  _157
REMARK   62  A    between atoms: _157  and  _158
REMARK   63  A    between atoms: _157  and  _160
REMARK   64  A    between atoms: _160  and  _161
REMARK   65  A    between atoms: _164  and  _166
REMARK   66  A    between atoms: _166  and  _167
REMARK   67  A    between atoms: _166  and  _169
REMARK   68  A    between atoms: _169  and  _170
REMARK   69  A    between atoms: _170  and  _171
REMARK   70  A    between atoms: _173  and  _175
REMARK   71  A    between atoms: _175  and  _176
REMARK   72  A    between atoms: _175  and  _178
REMARK   73  A    between atoms: _178  and  _179
REMARK   74  A    between atoms: _184  and  _185
REMARK   75  A    between atoms: _187  and  _189
REMARK   76  A    between atoms: _189  and  _190
REMARK   77  A    between atoms: _189  and  _192
REMARK   78  A    between atoms: _192  and  _193
REMARK   79  A    between atoms: _196  and  _198
REMARK   80  A    between atoms: _198  and  _199
REMARK   81  A    between atoms: _198  and  _201
REMARK   82  A    between atoms: _204  and  _206
REMARK   83  A    between atoms: _206  and  _207
REMARK   84  A    between atoms: _210  and  _212
REMARK   85  A    between atoms: _212  and  _213
REMARK   86  A    between atoms: _212  and  _215
REMARK   87  A    between atoms: _215  and  _216
REMARK   88  A    between atoms: _219  and  _221
REMARK   89  A    between atoms: _221  and  _222
REMARK   90  A    between atoms: _221  and  _224
REMARK   91  A    between atoms: _224  and  _225
REMARK   92  A    between atoms: _228  and  _230
REMARK   93  A    between atoms: _230  and  _231
REMARK   94  A    between atoms: _230  and  _233
REMARK   95  A    between atoms: _233  and  _234
REMARK   96  A    between atoms: _239  and  _240
REMARK   97  A    between atoms: _242  and  _244
REMARK   98  A    between atoms: _244  and  _245
REMARK   99  A    between atoms: _244  and  _247
REMARK  100  A    between atoms: _247  and  _248
REMARK  101  A    between atoms: _253  and  _254
REMARK  102  A    between atoms: _256  and  _258
REMARK  103  A    between atoms: _258  and  _259
REMARK  104  A    between atoms: _258  and  _261
REMARK  105  A    between atoms: _261  and  _262
REMARK  106  A    between atoms: _265  and  _267
REMARK  107  A    between atoms: _267  and  _268
REMARK  108  A    between atoms: _267  and  _270
REMARK  109  A    between atoms: _270  and  _271
REMARK  110  A    between atoms: _273  and  _275
REMARK  111  A    between atoms: _275  and  _276
REMARK  112  A    between atoms: _275  and  _278
REMARK  113  A    between atoms: _278  and  _279
REMARK  114  A    between atoms: _279  and  _280
REMARK  115  A    between atoms: _280  and  _281
REMARK  116  A    between atoms: _290  and  _292
REMARK  117  A    between atoms: _292  and  _293
REMARK  118  A    between atoms: _295  and  _297
REMARK  119  A    between atoms: _297  and  _298
REMARK  120  A    between atoms: _297  and  _300
REMARK  121  A    between atoms: _303  and  _305
REMARK  122  A    between atoms: _305  and  _306
REMARK  123  A    between atoms: _305  and  _308
REMARK  124  A    between atoms: _308  and  _309
REMARK  125  A    between atoms: _312  and  _314
REMARK  126  A    between atoms: _314  and  _315
REMARK  127  A    between atoms: _317  and  _319
REMARK  128  A    between atoms: _319  and  _320
REMARK  129  A    between atoms: _323  and  _325
REMARK  130  A    between atoms: _325  and  _326
REMARK  131  A    between atoms: _325  and  _328
REMARK  132  A    between atoms: _328  and  _329
REMARK  133  A    between atoms: _329  and  _330
REMARK  134  A    between atoms: _333  and  _335
REMARK  135  A    between atoms: _335  and  _336
REMARK  136  A    between atoms: _335  and  _338
REMARK  137  A    between atoms: _338  and  _339
REMARK  138  A    between atoms: _344  and  _346
REMARK  139  A    between atoms: _346  and  _347
REMARK  140  A    between atoms: _346  and  _349
REMARK  141  A    between atoms: _349  and  _350
REMARK  142  A    between atoms: _350  and  _351
REMARK  143  A    between atoms: _351  and  _352
REMARK  144  A    between atoms: _361  and  _363
REMARK  145  A    between atoms: _363  and  _364
REMARK  146  A    between atoms: _366  and  _368
REMARK  147  A    between atoms: _368  and  _369
REMARK  148  A    between atoms: _368  and  _371
REMARK  149  A    between atoms: _371  and  _372
REMARK  150  A    between atoms: _375  and  _377
REMARK  151  A    between atoms: _377  and  _378
REMARK  152  A    between atoms: _377  and  _380
REMARK  153  A    between atoms: _380  and  _381
REMARK  154  A    between atoms: _381  and  _382
REMARK  155  A    between atoms: _387  and  _389
REMARK  156  A    between atoms: _389  and  _390
REMARK  157  A    between atoms: _392  and  _394
REMARK  158  A    between atoms: _394  and  _395
REMARK  159  A    between atoms: _394  and  _397
REMARK  160  A    between atoms: _397  and  _398
REMARK  161  A    between atoms: _404  and  _406
REMARK  162  A    between atoms: _406  and  _407
REMARK  163  A    between atoms: _409  and  _411
REMARK  164  A    between atoms: _411  and  _412
REMARK  165  A    between atoms: _411  and  _414
REMARK  166  A    between atoms: _414  and  _415
REMARK  167  A    between atoms: _418  and  _420
REMARK  168  A    between atoms: _420  and  _421
REMARK  169  A    between atoms: _420  and  _423
REMARK  170  A    between atoms: _423  and  _424
REMARK  171  A    between atoms: _426  and  _428
REMARK  172  A    between atoms: _428  and  _429
REMARK  173  A    between atoms: _428  and  _431
REMARK  174  A    between atoms: _431  and  _432
REMARK  175  A    between atoms: _432  and  _433
REMARK  176  A    between atoms: _438  and  _440
REMARK  177  A    between atoms: _440  and  _441
REMARK  178  A    between atoms: _440  and  _443
REMARK  179  A    between atoms: _443  and  _444
REMARK  180  A    between atoms: _447  and  _449
REMARK  181  A    between atoms: _449  and  _450
REMARK  182  A    between atoms: _449  and  _452
REMARK  183  A    between atoms: _452  and  _453
REMARK  184  A    between atoms: _455  and  _457
REMARK  185  A    between atoms: _457  and  _458
REMARK  186  A    between atoms: _460  and  _462
REMARK  187  A    between atoms: _462  and  _463
REMARK  188  A    between atoms: _462  and  _465
REMARK  189  A    between atoms: _465  and  _466
REMARK  190  A    between atoms: _468  and  _470
REMARK  191  A    between atoms: _470  and  _471
REMARK  192  A    between atoms: _474  and  _476
REMARK  193  A    between atoms: _476  and  _477
REMARK  194  A    between atoms: _476  and  _479
REMARK  195  A    between atoms: _479  and  _480
REMARK  196  A    between atoms: _483  and  _485
REMARK  197  A    between atoms: _485  and  _486
REMARK  198  A    between atoms: _485  and  _488
REMARK  199  A    between atoms: _491  and  _493
REMARK  200  A    between atoms: _493  and  _494
REMARK  201  A    between atoms: _493  and  _496
REMARK  202  A    between atoms: _496  and  _497
REMARK  203  A    between atoms: _497  and  _498
REMARK  204  A    between atoms: _498  and  _499
REMARK  205  A    between atoms: _499  and  _500
REMARK  206  A    between atoms: _505  and  _506
REMARK                            x       y       z     vdW  Elec       q    Type
REMARK                         _______ _______ _______ _____ _____    ______ ____
ROOT
ATOM      1  CB  GLN A   1      38.881  29.686   4.476  0.00  0.00    +0.035 C 
ENDROOT
BRANCH   1   2
ATOM      2  CA  GLN A   1      37.358  29.608   4.334  0.00  0.00    +0.134 C 
BRANCH   2   3
ATOM      3  N   GLN A   1      36.820  30.867   3.796  0.00  0.00    -0.239 NA
ATOM      4  H   GLN A   1      37.397  31.732   3.781  0.00  0.00    +0.142 HD
ENDBRANCH   2   3
BRANCH   2   5
ATOM      5  C   GLN A   1      36.749  29.285   5.687  0.00  0.00    +0.224 C 
ATOM      6  O   GLN A   1      36.627  28.076   6.017  0.00  0.00    -0.287 OA
ENDBRANCH   2   5
ENDBRANCH   1   2
BRANCH   1   7
ATOM      7  CG  GLN A   1      39.615  29.712   3.154  0.00  0.00    +0.087 C 
BRANCH   7   8
ATOM      8  CD  GLN A   1      41.089  30.008   3.346  0.00  0.00    +0.219 C 
ATOM      9  OE1 GLN A   1      41.468  31.150   3.566  0.00  0.00    -0.275 OA
ATOM     10  NE2 GLN A   1      41.937  28.969   3.280  0.00  0.00    -0.329 N 
ATOM     11 HE21 GLN A   1      42.957  29.120   3.418  0.00  0.00    +0.145 HD
ATOM     12 HE22 GLN A   1      41.574  28.013   3.091  0.00  0.00    +0.145 HD
ENDBRANCH   7   8
ENDBRANCH   1   7
TORSDOF 5
REMARK  Name = ../refined-set-2016/1tjp/1tjp_pocket.pdb
REMARK  206 active torsions:
REMARK  status: ('A' for Active; 'I' for Inactive)
REMARK    1  A    between atoms: _1  and  _3
REMARK    2  A    between atoms: _3  and  _4
REMARK    3  A    between atoms: _3  and  _6
REMARK    4  A    between atoms: _10  and  _11
REMARK    5  A    between atoms: _16  and  _18
REMARK    6  A    between atoms: _18  and  _19
REMARK    7  A    between atoms: _18  and  _21
REMARK    8  A    between atoms: _21  and  _22
REMARK    9  A    between atoms: _28  and  _30
REMARK   10  A    between atoms: _30  and  _31
REMARK   11  A    between atoms: _30  and  _33
REMARK   12  A    between atoms: _36  and  _38
REMARK   13  A    between atoms: _38  and  _39
REMARK   14  A    between atoms: _38  and  _41
REMARK   15  A    between atoms: _41  and  _42
REMARK   16  A    between atoms: _45  and  _47
REMARK   17  A    between atoms: _47  and  _48
REMARK   18  A    between atoms: _47  and  _50
REMARK   19  A    between atoms: _50  and  _51
REMARK   20  A    between atoms: _51  and  _52
REMARK   21  A    between atoms: _55  and  _57
REMARK   22  A    between atoms: _57  and  _58
REMARK   23  A    between atoms: _57  and  _60
REMARK   24  A    between atoms: _60  and  _61
REMARK   25  A    between atoms: _64  and  _66
REMARK   26  A    between atoms: _66  and  _67
REMARK   27  A    between atoms: _70  and  _71
REMARK   28  A    between atoms: _76  and  _78
REMARK   29  A    between atoms: _78  and  _79
REMARK   30  A    between atoms: _78  and  _81
REMARK   31  A    between atoms: _81  and  _82
REMARK   32  A    between atoms: _85  and  _87
REMARK   33  A    between atoms: _87  and  _88
REMARK   34  A    between atoms: _91  and  _93
REMARK   35  A    between atoms: _93  and  _94
REMARK   36  A    between atoms: _93  and  _96
REMARK   37  A    between atoms: _96  and  _97
REMARK   38  A    between atoms: _100  and  _102
REMARK   39  A    between atoms: _102  and  _103
REMARK   40  A    between atoms: _105  and  _107
REMARK   41  A    between atoms: _107  and  _108
REMARK   42  A    between atoms: _107  and  _110
REMARK   43  A    between atoms: _110  and  _111
REMARK   44  A    between atoms: _114  and  _116
REMARK   45  A    between atoms: _116  and  _117
REMARK   46  A    between atoms: _116  and  _119
REMARK   47  A    between atoms: _119  and  _120
REMARK   48  A    between atoms: _123  and  _125
REMARK   49  A    between atoms: _125  and  _126
REMARK   50  A    between atoms: _125  and  _128
REMARK   51  A    between atoms: _128  and  _129
REMARK   52  A    between atoms: _129  and  _130
REMARK   53  A    between atoms: _135  and  _137
REMARK   54  A    between atoms: _137  and  _138
REMARK   55  A    between atoms: _137  and  _140
REMARK   56  A    between atoms: _140  and  _141
REMARK   57  A    between atoms: _146  and  _148
REMARK   58  A    between atoms: _148  and  _149
REMARK   59  A    between atoms: _148  and  _151
REMARK   60  A    between atoms: _151  and  _152
REMARK   61  A    between atoms: _155  and  _157
REMARK   62  A    between atoms: _157  and  _158
REMARK   63  A    between atoms: _157  and  _160
REMARK   64  A    between atoms: _160  and  _161
REMARK   65  A    between atoms: _164  and  _166
REMARK   66  A    between atoms: _166  and  _167
REMARK   67  A    between atoms: _166  and  _169
REMARK   68  A    between atoms: _169  and  _170
REMARK   69  A    between atoms: _170  and  _171
REMARK   70  A    between atoms: _173  and  _175
REMARK   71  A    between atoms: _175  and  _176
REMARK   72  A    between atoms: _175  and  _178
REMARK   73  A    between atoms: _178  and  _179
REMARK   74  A    between atoms: _184  and  _185
REMARK   75  A    between atoms: _187  and  _189
REMARK   76  A    between atoms: _189  and  _190
REMARK   77  A    between atoms: _189  and  _192
REMARK   78  A    between atoms: _192  and  _193
REMARK   79  A    between atoms: _196  and  _198
REMARK   80  A    between atoms: _198  and  _199
REMARK   81  A    between atoms: _198  and  _201
REMARK   82  A    between atoms: _204  and  _206
REMARK   83  A    between atoms: _206  and  _207
REMARK   84  A    between atoms: _210  and  _212
REMARK   85  A    between atoms: _212  and  _213
REMARK   86  A    between atoms: _212  and  _215
REMARK   87  A    between atoms: _215  and  _216
REMARK   88  A    between atoms: _219  and  _221
REMARK   89  A    between atoms: _221  and  _222
REMARK   90  A    between atoms: _221  and  _224
REMARK   91  A    between atoms: _224  and  _225
REMARK   92  A    between atoms: _228  and  _230
REMARK   93  A    between atoms: _230  and  _231
REMARK   94  A    between atoms: _230  and  _233
REMARK   95  A    between atoms: _233  and  _234
REMARK   96  A    between atoms: _239  and  _240
REMARK   97  A    between atoms: _242  and  _244
REMARK   98  A    between atoms: _244  and  _245
REMARK   99  A    between atoms: _244  and  _247
REMARK  100  A    between atoms: _247  and  _248
REMARK  101  A    between atoms: _253  and  _254
REMARK  102  A    between atoms: _256  and  _258
REMARK  103  A    between atoms: _258  and  _259
REMARK  104  A    between atoms: _258  and  _261
REMARK  105  A    between atoms: _261  and  _262
REMARK  106  A    between atoms: _265  and  _267
REMARK  107  A    between atoms: _267  and  _268
REMARK  108  A    between atoms: _267  and  _270
REMARK  109  A    between atoms: _270  and  _271
REMARK  110  A    between atoms: _273  and  _275
REMARK  111  A    between atoms: _275  and  _276
REMARK  112  A    between atoms: _275  and  _278
REMARK  113  A    between atoms: _278  and  _279
REMARK  114  A    between atoms: _279  and  _280
REMARK  115  A    between atoms: _280  and  _281
REMARK  116  A    between atoms: _290  and  _292
REMARK  117  A    between atoms: _292  and  _293
REMARK  118  A    between atoms: _295  and  _297
REMARK  119  A    between atoms: _297  and  _298
REMARK  120  A    between atoms: _297  and  _300
REMARK  121  A    between atoms: _303  and  _305
REMARK  122  A    between atoms: _305  and  _306
REMARK  123  A    between atoms: _305  and  _308
REMARK  124  A    between atoms: _308  and  _309
REMARK  125  A    between atoms: _312  and  _314
REMARK  126  A    between atoms: _314  and  _315
REMARK  127  A    between atoms: _317  and  _319
REMARK  128  A    between atoms: _319  and  _320
REMARK  129  A    between atoms: _323  and  _325
REMARK  130  A    between atoms: _325  and  _326
REMARK  131  A    between atoms: _325  and  _328
REMARK  132  A    between atoms: _328  and  _329
REMARK  133  A    between atoms: _329  and  _330
REMARK  134  A    between atoms: _333  and  _335
REMARK  135  A    between atoms: _335  and  _336
REMARK  136  A    between atoms: _335  and  _338
REMARK  137  A    between atoms: _338  and  _339
REMARK  138  A    between atoms: _344  and  _346
REMARK  139  A    between atoms: _346  and  _347
REMARK  140  A    between atoms: _346  and  _349
REMARK  141  A    between atoms: _349  and  _350
REMARK  142  A    between atoms: _350  and  _351
REMARK  143  A    between atoms: _351  and  _352
REMARK  144  A    between atoms: _361  and  _363
REMARK  145  A    between atoms: _363  and  _364
REMARK  146  A    between atoms: _366  and  _368
REMARK  147  A    between atoms: _368  and  _369
REMARK  148  A    between atoms: _368  and  _371
REMARK  149  A    between atoms: _371  and  _372
REMARK  150  A    between atoms: _375  and  _377
REMARK  151  A    between atoms: _377  and  _378
REMARK  152  A    between atoms: _377  and  _380
REMARK  153  A    between atoms: _380  and  _381
REMARK  154  A    between atoms: _381  and  _382
REMARK  155  A    between atoms: _387  and  _389
REMARK  156  A    between atoms: _389  and  _390
REMARK  157  A    between atoms: _392  and  _394
REMARK  158  A    between atoms: _394  and  _395
REMARK  159  A    between atoms: _394  and  _397
REMARK  160  A    between atoms: _397  and  _398
REMARK  161  A    between atoms: _404  and  _406
REMARK  162  A    between atoms: _406  and  _407
REMARK  163  A    between atoms: _409  and  _411
REMARK  164  A    between atoms: _411  and  _412
REMARK  165  A    between atoms: _411  and  _414
REMARK  166  A    between atoms: _414  and  _415
REMARK  167  A    between atoms: _418  and  _420
REMARK  168  A    between atoms: _420  and  _421
REMARK  169  A    between atoms: _420  and  _423
REMARK  170  A    between atoms: _423  and  _424
REMARK  171  A    between atoms: _426  and  _428
REMARK  172  A    between atoms: _428  and  _429
REMARK  173  A    between atoms: _428  and  _431
REMARK  174  A    between atoms: _431  and  _432
REMARK  175  A    between atoms: _432  and  _433
REMARK  176  A    between atoms: _438  and  _440
REMARK  177  A    between atoms: _440  and  _441
REMARK  178  A    between atoms: _440  and  _443
REMARK  179  A    between atoms: _443  and  _444
REMARK  180  A    between atoms: _447  and  _449
REMARK  181  A    between atoms: _449  and  _450
REMARK  182  A    between atoms: _449  and  _452
REMARK  183  A    between atoms: _452  and  _453
REMARK  184  A    between atoms: _455  and  _457
REMARK  185  A    between atoms: _457  and  _458
REMARK  186  A    between atoms: _460  and  _462
REMARK  187  A    between atoms: _462  and  _463
REMARK  188  A    between atoms: _462  and  _465
REMARK  189  A    between atoms: _465  and  _466
REMARK  190  A    between atoms: _468  and  _470
REMARK  191  A    between atoms: _470  and  _471
REMARK  192  A    between atoms: _474  and  _476
REMARK  193  A    between atoms: _476  and  _477
REMARK  194  A    between atoms: _476  and  _479
REMARK  195  A    between atoms: _479  and  _480
REMARK  196  A    between atoms: _483  and  _485
REMARK  197  A    between atoms: _485  and  _486
REMARK  198  A    between atoms: _485  and  _488
REMARK  199  A    between atoms: _491  and  _493
REMARK  200  A    between atoms: _493  and  _494
REMARK  201  A    between atoms: _493  and  _496
REMARK  202  A    between atoms: _496  and  _497
REMARK  203  A    between atoms: _497  and  _498
REMARK  204  A    between atoms: _498  and  _499
REMARK  205  A    between atoms: _499  and  _500
REMARK  206  A    between atoms: _505  and  _506
REMARK                            x       y       z     vdW  Elec       q    Type
REMARK                         _______ _______ _______ _____ _____    ______ ____
ROOT
ATOM      1  CA  ALA A   5      47.063  35.974   8.433  0.00  0.00    +0.149 C 
ATOM      2  CB  ALA A   5      45.661  35.600   7.936  0.00  0.00    +0.031 C 
ENDROOT
BRANCH   1   5
ATOM      3  C   SER A   4      49.023  34.848   9.361  0.00  0.00    +0.243 C 
ATOM      4  O   SER A   4      49.670  35.891   9.301  0.00  0.00    -0.273 OA
ATOM      5  N   ALA A   5      47.748  34.771   8.998  0.00  0.00    -0.297 N 
ATOM      6  H   ALA A   5      47.228  33.877   9.106  0.00  0.00    +0.150 HD
BRANCH   3   7
ATOM      7  CA  SER A   4      49.718  33.606   9.934  0.00  0.00    +0.178 C 
BRANCH   7  10
ATOM      8  C   GLY A   3      48.203  33.428  11.840  0.00  0.00    +0.243 C 
ATOM      9  O   GLY A   3      48.279  34.648  12.104  0.00  0.00    -0.273 OA
ATOM     10  N   SER A   4      48.836  32.842  10.828  0.00  0.00    -0.295 N 
ATOM     11  H   SER A   4      48.704  31.823  10.666  0.00  0.00    +0.150 HD
BRANCH   8  12
ATOM     12  CA  GLY A   3      47.370  32.533  12.718  0.00  0.00    +0.176 C 
BRANCH  12  15
ATOM     13  C   SER A   2      44.960  32.325  12.451  0.00  0.00    +0.243 C 
ATOM     14  O   SER A   2      44.734  33.050  13.451  0.00  0.00    -0.273 OA
ATOM     15  N   GLY A   3      46.195  31.982  12.025  0.00  0.00    -0.295 N 
ATOM     16  H   GLY A   3      46.314  31.337  11.218  0.00  0.00    +0.150 HD
BRANCH  13  17
ATOM     17  CA  SER A   2      43.813  31.720  11.686  0.00  0.00    +0.178 C 
BRANCH  17  19
ATOM     18  C   ILE A   1      42.562  29.720  12.353  0.00  0.00    +0.238 C 
ATOM     19  N   SER A   2      42.978  30.965  12.633  0.00  0.00    -0.295 N 
ATOM     20  H   SER A   2      42.705  31.404  13.536  0.00  0.00    +0.150 HD
ATOM     21  O   ILE A   1      42.793  29.187  11.286  0.00  0.00    -0.274 OA
BRANCH  18  22
ATOM     22  CA  ILE A   1      41.769  29.004  13.425  0.00  0.00    +0.145 C 
BRANCH  22  23
ATOM     23  N   ILE A   1      40.655  28.279  12.816  0.00  0.00    -0.238 NA
ATOM     24  H   ILE A   1      40.876  27.455  12.221  0.00  0.00    +0.142 HD
ENDBRANCH  22  23
BRANCH  22  25
ATOM     25  CB  ILE A   1      42.734  27.996  14.120  0.00  0.00    +0.025 C 
ATOM     26  CG2 ILE A   1      43.962  28.748  14.668  0.00  0.00    +0.002 C 
BRANCH  25  27
ATOM     27  CG1 ILE A   1      42.040  27.298  15.269  0.00  0.00    +0.002 C 
ATOM     28  CD1 ILE A   1      42.717  25.902  15.615  0.00  0.00    +0.000 C 
ENDBRANCH  25  27
ENDBRANCH  22  25
ENDBRANCH  18  22
ENDBRANCH  17  19
BRANCH  17  29
ATOM     29  CB  SER A   2      42.998  32.867  11.022  0.00  0.00    +0.166 C 
BRANCH  29  30
ATOM     30  OG  SER A   2      43.817  33.650  10.146  0.00  0.00    -0.380 OA
ATOM     31  H   SER A   2      44.183  33.070   9.432  0.00  0.00    +0.211 HD
ENDBRANCH  29  30
ENDBRANCH  17  29
ENDBRANCH  13  17
ENDBRANCH  12  15
ENDBRANCH   8  12
ENDBRANCH   7  10
BRANCH   7  32
ATOM     32  CB  SER A   4      50.233  32.709   8.806  0.00  0.00    +0.166 C 
BRANCH  32  33
ATOM     33  OG  SER A   4      51.126  31.730   9.319  0.00  0.00    -0.380 OA
ATOM     34  H   SER A   4      50.653  31.171   9.986  0.00  0.00    +0.211 HD
ENDBRANCH  32  33
ENDBRANCH   7  32
ENDBRANCH   3   7
ENDBRANCH   1   5
BRANCH   1  35
ATOM     35  C   ALA A   5      46.981  37.092   9.457  0.00  0.00    +0.241 C 
ATOM     36  N   ILE A   6      46.777  36.733  10.725  0.00  0.00    -0.297 N 
ATOM     37  H   ILE A   6      46.656  35.725  10.949  0.00  0.00    +0.150 HD
ATOM     38  O   ALA A   5      47.107  38.280   9.115  0.00  0.00    -0.273 OA
BRANCH  36  39
ATOM     39  CA  ILE A   6      46.719  37.699  11.798  0.00  0.00    +0.149 C 
BRANCH  39  40
ATOM     40  C   ILE A   6      48.107  38.288  12.036  0.00  0.00    +0.241 C 
ATOM     41  O   ILE A   6      48.291  39.504  12.198  0.00  0.00    -0.273 OA
ATOM     42  N   VAL A   7      49.104  37.414  12.092  0.00  0.00    -0.297 N 
ATOM     43  H   VAL A   7      48.912  36.405  11.928  0.00  0.00    +0.150 HD
BRANCH  42  44
ATOM     44  CA  VAL A   7      50.472  37.851  12.381  0.00  0.00    +0.149 C 
BRANCH  44  45
ATOM     45  C   VAL A   7      51.017  38.733  11.255  0.00  0.00    +0.241 C 
ATOM     46  O   VAL A   7      51.833  39.629  11.544  0.00  0.00    -0.273 OA
ATOM     47  N   LYS A   8      50.602  38.486  10.020  0.00  0.00    -0.298 N 
ATOM     48  H   LYS A   8      49.942  37.703   9.837  0.00  0.00    +0.150 HD
BRANCH  47  49
ATOM     49  CA  LYS A   8      51.079  39.323   8.911  0.00  0.00    +0.137 C 
BRANCH  49  50
ATOM     50  C   LYS A   8      50.622  40.770   9.140  0.00  0.00    +0.227 C 
ATOM     51  O   LYS A   8      51.355  41.695   8.731  0.00  0.00    -0.286 OA
ENDBRANCH  49  50
BRANCH  49  52
ATOM     52  CB  LYS A   8      50.535  38.820   7.566  0.00  0.00    +0.028 C 
BRANCH  52  53
ATOM     53  CG  LYS A   8      51.242  37.574   6.966  0.00  0.00    -0.000 C 
BRANCH  53  54
ATOM     54  CD  LYS A   8      50.801  37.245   5.504  0.00  0.00    -0.024 C 
BRANCH  54  55
ATOM     55  CE  LYS A   8      51.558  35.988   4.963  0.00  0.00    -0.086 C 
BRANCH  55  56
ATOM     56  NZ  LYS A   8      51.427  35.516   3.506  0.00  0.00    +0.380 N 
ATOM     57  HZ1 LYS A   8      52.012  34.668   3.364  0.00  0.00    -0.089 HD
ATOM     58  HZ2 LYS A   8      50.432  35.291   3.304  0.00  0.00    -0.089 HD
ATOM     59  HZ3 LYS A   8      51.749  36.271   2.868  0.00  0.00    -0.089 HD
ENDBRANCH  55  56
ENDBRANCH  54  55
ENDBRANCH  53  54
ENDBRANCH  52  53
ENDBRANCH  49  52
ENDBRANCH  47  49
ENDBRANCH  44  45
BRANCH  44  60
ATOM     60  CB  VAL A   7      51.394  36.570  12.600  0.00  0.00    +0.027 C 
ATOM     61  CG2 VAL A   7      50.931  35.857  13.912  0.00  0.00    +0.002 C 
ATOM     62  CG1 VAL A   7      52.896  36.955  12.812  0.00  0.00    +0.002 C 
ENDBRANCH  44  60
ENDBRANCH  42  44
ENDBRANCH  39  40
BRANCH  39  63
ATOM     63  CB  ILE A   6      46.252  37.022  13.133  0.00  0.00    +0.027 C 
ATOM     64  CG2 ILE A   6      46.369  37.967  14.259  0.00  0.00    +0.002 C 
BRANCH  63  65
ATOM     65  CG1 ILE A   6      44.833  36.436  12.977  0.00  0.00    +0.002 C 
ATOM     66  CD1 ILE A   6      43.693  37.394  13.182  0.00  0.00    +0.000 C 
ENDBRANCH  63  65
ENDBRANCH  39  63
ENDBRANCH  36  39
ENDBRANCH   1  35
TORSDOF 30
REMARK  Name = ../refined-set-2016/1tjp/1tjp_pocket.pdb
REMARK  206 active torsions:
REMARK  status: ('A' for Active; 'I' for Inactive)
REMARK    1  A    between atoms: _1  and  _3
REMARK    2  A    between atoms: _3  and  _4
REMARK    3  A    between atoms: _3  and  _6
REMARK    4  A    between atoms: _10  and  _11
REMARK    5  A    between atoms: _16  and  _18
REMARK    6  A    between atoms: _18  and  _19
REMARK    7  A    between atoms: _18  and  _21
REMARK    8  A    between atoms: _21  and  _22
REMARK    9  A    between atoms: _28  and  _30
REMARK   10  A    between atoms: _30  and  _31
REMARK   11  A    between atoms: _30  and  _33
REMARK   12  A    between atoms: _36  and  _38
REMARK   13  A    between atoms: _38  and  _39
REMARK   14  A    between atoms: _38  and  _41
REMARK   15  A    between atoms: _41  and  _42
REMARK   16  A    between atoms: _45  and  _47
REMARK   17  A    between atoms: _47  and  _48
REMARK   18  A    between atoms: _47  and  _50
REMARK   19  A    between atoms: _50  and  _51
REMARK   20  A    between atoms: _51  and  _52
REMARK   21  A    between atoms: _55  and  _57
REMARK   22  A    between atoms: _57  and  _58
REMARK   23  A    between atoms: _57  and  _60
REMARK   24  A    between atoms: _60  and  _61
REMARK   25  A    between atoms: _64  and  _66
REMARK   26  A    between atoms: _66  and  _67
REMARK   27  A    between atoms: _70  and  _71
REMARK   28  A    between atoms: _76  and  _78
REMARK   29  A    between atoms: _78  and  _79
REMARK   30  A    between atoms: _78  and  _81
REMARK   31  A    between atoms: _81  and  _82
REMARK   32  A    between atoms: _85  and  _87
REMARK   33  A    between atoms: _87  and  _88
REMARK   34  A    between atoms: _91  and  _93
REMARK   35  A    between atoms: _93  and  _94
REMARK   36  A    between atoms: _93  and  _96
REMARK   37  A    between atoms: _96  and  _97
REMARK   38  A    between atoms: _100  and  _102
REMARK   39  A    between atoms: _102  and  _103
REMARK   40  A    between atoms: _105  and  _107
REMARK   41  A    between atoms: _107  and  _108
REMARK   42  A    between atoms: _107  and  _110
REMARK   43  A    between atoms: _110  and  _111
REMARK   44  A    between atoms: _114  and  _116
REMARK   45  A    between atoms: _116  and  _117
REMARK   46  A    between atoms: _116  and  _119
REMARK   47  A    between atoms: _119  and  _120
REMARK   48  A    between atoms: _123  and  _125
REMARK   49  A    between atoms: _125  and  _126
REMARK   50  A    between atoms: _125  and  _128
REMARK   51  A    between atoms: _128  and  _129
REMARK   52  A    between atoms: _129  and  _130
REMARK   53  A    between atoms: _135  and  _137
REMARK   54  A    between atoms: _137  and  _138
REMARK   55  A    between atoms: _137  and  _140
REMARK   56  A    between atoms: _140  and  _141
REMARK   57  A    between atoms: _146  and  _148
REMARK   58  A    between atoms: _148  and  _149
REMARK   59  A    between atoms: _148  and  _151
REMARK   60  A    between atoms: _151  and  _152
REMARK   61  A    between atoms: _155  and  _157
REMARK   62  A    between atoms: _157  and  _158
REMARK   63  A    between atoms: _157  and  _160
REMARK   64  A    between atoms: _160  and  _161
REMARK   65  A    between atoms: _164  and  _166
REMARK   66  A    between atoms: _166  and  _167
REMARK   67  A    between atoms: _166  and  _169
REMARK   68  A    between atoms: _169  and  _170
REMARK   69  A    between atoms: _170  and  _171
REMARK   70  A    between atoms: _173  and  _175
REMARK   71  A    between atoms: _175  and  _176
REMARK   72  A    between atoms: _175  and  _178
REMARK   73  A    between atoms: _178  and  _179
REMARK   74  A    between atoms: _184  and  _185
REMARK   75  A    between atoms: _187  and  _189
REMARK   76  A    between atoms: _189  and  _190
REMARK   77  A    between atoms: _189  and  _192
REMARK   78  A    between atoms: _192  and  _193
REMARK   79  A    between atoms: _196  and  _198
REMARK   80  A    between atoms: _198  and  _199
REMARK   81  A    between atoms: _198  and  _201
REMARK   82  A    between atoms: _204  and  _206
REMARK   83  A    between atoms: _206  and  _207
REMARK   84  A    between atoms: _210  and  _212
REMARK   85  A    between atoms: _212  and  _213
REMARK   86  A    between atoms: _212  and  _215
REMARK   87  A    between atoms: _215  and  _216
REMARK   88  A    between atoms: _219  and  _221
REMARK   89  A    between atoms: _221  and  _222
REMARK   90  A    between atoms: _221  and  _224
REMARK   91  A    between atoms: _224  and  _225
REMARK   92  A    between atoms: _228  and  _230
REMARK   93  A    between atoms: _230  and  _231
REMARK   94  A    between atoms: _230  and  _233
REMARK   95  A    between atoms: _233  and  _234
REMARK   96  A    between atoms: _239  and  _240
REMARK   97  A    between atoms: _242  and  _244
REMARK   98  A    between atoms: _244  and  _245
REMARK   99  A    between atoms: _244  and  _247
REMARK  100  A    between atoms: _247  and  _248
REMARK  101  A    between atoms: _253  and  _254
REMARK  102  A    between atoms: _256  and  _258
REMARK  103  A    between atoms: _258  and  _259
REMARK  104  A    between atoms: _258  and  _261
REMARK  105  A    between atoms: _261  and  _262
REMARK  106  A    between atoms: _265  and  _267
REMARK  107  A    between atoms: _267  and  _268
REMARK  108  A    between atoms: _267  and  _270
REMARK  109  A    between atoms: _270  and  _271
REMARK  110  A    between atoms: _273  and  _275
REMARK  111  A    between atoms: _275  and  _276
REMARK  112  A    between atoms: _275  and  _278
REMARK  113  A    between atoms: _278  and  _279
REMARK  114  A    between atoms: _279  and  _280
REMARK  115  A    between atoms: _280  and  _281
REMARK  116  A    between atoms: _290  and  _292
REMARK  117  A    between atoms: _292  and  _293
REMARK  118  A    between atoms: _295  and  _297
REMARK  119  A    between atoms: _297  and  _298
REMARK  120  A    between atoms: _297  and  _300
REMARK  121  A    between atoms: _303  and  _305
REMARK  122  A    between atoms: _305  and  _306
REMARK  123  A    between atoms: _305  and  _308
REMARK  124  A    between atoms: _308  and  _309
REMARK  125  A    between atoms: _312  and  _314
REMARK  126  A    between atoms: _314  and  _315
REMARK  127  A    between atoms: _317  and  _319
REMARK  128  A    between atoms: _319  and  _320
REMARK  129  A    between atoms: _323  and  _325
REMARK  130  A    between atoms: _325  and  _326
REMARK  131  A    between atoms: _325  and  _328
REMARK  132  A    between atoms: _328  and  _329
REMARK  133  A    between atoms: _329  and  _330
REMARK  134  A    between atoms: _333  and  _335
REMARK  135  A    between atoms: _335  and  _336
REMARK  136  A    between atoms: _335  and  _338
REMARK  137  A    between atoms: _338  and  _339
REMARK  138  A    between atoms: _344  and  _346
REMARK  139  A    between atoms: _346  and  _347
REMARK  140  A    between atoms: _346  and  _349
REMARK  141  A    between atoms: _349  and  _350
REMARK  142  A    between atoms: _350  and  _351
REMARK  143  A    between atoms: _351  and  _352
REMARK  144  A    between atoms: _361  and  _363
REMARK  145  A    between atoms: _363  and  _364
REMARK  146  A    between atoms: _366  and  _368
REMARK  147  A    between atoms: _368  and  _369
REMARK  148  A    between atoms: _368  and  _371
REMARK  149  A    between atoms: _371  and  _372
REMARK  150  A    between atoms: _375  and  _377
REMARK  151  A    between atoms: _377  and  _378
REMARK  152  A    between atoms: _377  and  _380
REMARK  153  A    between atoms: _380  and  _381
REMARK  154  A    between atoms: _381  and  _382
REMARK  155  A    between atoms: _387  and  _389
REMARK  156  A    between atoms: _389  and  _390
REMARK  157  A    between atoms: _392  and  _394
REMARK  158  A    between atoms: _394  and  _395
REMARK  159  A    between atoms: _394  and  _397
REMARK  160  A    between atoms: _397  and  _398
REMARK  161  A    between atoms: _404  and  _406
REMARK  162  A    between atoms: _406  and  _407
REMARK  163  A    between atoms: _409  and  _411
REMARK  164  A    between atoms: _411  and  _412
REMARK  165  A    between atoms: _411  and  _414
REMARK  166  A    between atoms: _414  and  _415
REMARK  167  A    between atoms: _418  and  _420
REMARK  168  A    between atoms: _420  and  _421
REMARK  169  A    between atoms: _420  and  _423
REMARK  170  A    between atoms: _423  and  _424
REMARK  171  A    between atoms: _426  and  _428
REMARK  172  A    between atoms: _428  and  _429
REMARK  173  A    between atoms: _428  and  _431
REMARK  174  A    between atoms: _431  and  _432
REMARK  175  A    between atoms: _432  and  _433
REMARK  176  A    between atoms: _438  and  _440
REMARK  177  A    between atoms: _440  and  _441
REMARK  178  A    between atoms: _440  and  _443
REMARK  179  A    between atoms: _443  and  _444
REMARK  180  A    between atoms: _447  and  _449
REMARK  181  A    between atoms: _449  and  _450
REMARK  182  A    between atoms: _449  and  _452
REMARK  183  A    between atoms: _452  and  _453
REMARK  184  A    between atoms: _455  and  _457
REMARK  185  A    between atoms: _457  and  _458
REMARK  186  A    between atoms: _460  and  _462
REMARK  187  A    between atoms: _462  and  _463
REMARK  188  A    between atoms: _462  and  _465
REMARK  189  A    between atoms: _465  and  _466
REMARK  190  A    between atoms: _468  and  _470
REMARK  191  A    between atoms: _470  and  _471
REMARK  192  A    between atoms: _474  and  _476
REMARK  193  A    between atoms: _476  and  _477
REMARK  194  A    between atoms: _476  and  _479
REMARK  195  A    between atoms: _479  and  _480
REMARK  196  A    between atoms: _483  and  _485
REMARK  197  A    between atoms: _485  and  _486
REMARK  198  A    between atoms: _485  and  _488
REMARK  199  A    between atoms: _491  and  _493
REMARK  200  A    between atoms: _493  and  _494
REMARK  201  A    between atoms: _493  and  _496
REMARK  202  A    between atoms: _496  and  _497
REMARK  203  A    between atoms: _497  and  _498
REMARK  204  A    between atoms: _498  and  _499
REMARK  205  A    between atoms: _499  and  _500
REMARK  206  A    between atoms: _505  and  _506
REMARK                            x       y       z     vdW  Elec       q    Type
REMARK                         _______ _______ _______ _____ _____    ______ ____
ROOT
ATOM      1  N   PRO A   1      56.173  16.477  14.528  0.00  0.00    -0.212 NA
ATOM      2  CA  PRO A   1      54.743  16.749  14.365  0.00  0.00    +0.137 C 
ATOM      3  CB  PRO A   1      54.737  17.897  13.350  0.00  0.00    +0.027 C 
ATOM      4  CG  PRO A   1      55.960  18.690  13.740  0.00  0.00    +0.021 C 
ATOM      5  CD  PRO A   1      57.022  17.586  14.048  0.00  0.00    +0.089 C 
ENDROOT
BRANCH   2   6
ATOM      6  C   PRO A   1      54.071  15.477  13.794  0.00  0.00    +0.224 C 
ATOM      7  O   PRO A   1      54.675  14.723  12.979  0.00  0.00    -0.287 OA
ENDBRANCH   2   6
TORSDOF 1
REMARK  Name = ../refined-set-2016/1tjp/1tjp_pocket.pdb
REMARK  206 active torsions:
REMARK  status: ('A' for Active; 'I' for Inactive)
REMARK    1  A    between atoms: _1  and  _3
REMARK    2  A    between atoms: _3  and  _4
REMARK    3  A    between atoms: _3  and  _6
REMARK    4  A    between atoms: _10  and  _11
REMARK    5  A    between atoms: _16  and  _18
REMARK    6  A    between atoms: _18  and  _19
REMARK    7  A    between atoms: _18  and  _21
REMARK    8  A    between atoms: _21  and  _22
REMARK    9  A    between atoms: _28  and  _30
REMARK   10  A    between atoms: _30  and  _31
REMARK   11  A    between atoms: _30  and  _33
REMARK   12  A    between atoms: _36  and  _38
REMARK   13  A    between atoms: _38  and  _39
REMARK   14  A    between atoms: _38  and  _41
REMARK   15  A    between atoms: _41  and  _42
REMARK   16  A    between atoms: _45  and  _47
REMARK   17  A    between atoms: _47  and  _48
REMARK   18  A    between atoms: _47  and  _50
REMARK   19  A    between atoms: _50  and  _51
REMARK   20  A    between atoms: _51  and  _52
REMARK   21  A    between atoms: _55  and  _57
REMARK   22  A    between atoms: _57  and  _58
REMARK   23  A    between atoms: _57  and  _60
REMARK   24  A    between atoms: _60  and  _61
REMARK   25  A    between atoms: _64  and  _66
REMARK   26  A    between atoms: _66  and  _67
REMARK   27  A    between atoms: _70  and  _71
REMARK   28  A    between atoms: _76  and  _78
REMARK   29  A    between atoms: _78  and  _79
REMARK   30  A    between atoms: _78  and  _81
REMARK   31  A    between atoms: _81  and  _82
REMARK   32  A    between atoms: _85  and  _87
REMARK   33  A    between atoms: _87  and  _88
REMARK   34  A    between atoms: _91  and  _93
REMARK   35  A    between atoms: _93  and  _94
REMARK   36  A    between atoms: _93  and  _96
REMARK   37  A    between atoms: _96  and  _97
REMARK   38  A    between atoms: _100  and  _102
REMARK   39  A    between atoms: _102  and  _103
REMARK   40  A    between atoms: _105  and  _107
REMARK   41  A    between atoms: _107  and  _108
REMARK   42  A    between atoms: _107  and  _110
REMARK   43  A    between atoms: _110  and  _111
REMARK   44  A    between atoms: _114  and  _116
REMARK   45  A    between atoms: _116  and  _117
REMARK   46  A    between atoms: _116  and  _119
REMARK   47  A    between atoms: _119  and  _120
REMARK   48  A    between atoms: _123  and  _125
REMARK   49  A    between atoms: _125  and  _126
REMARK   50  A    between atoms: _125  and  _128
REMARK   51  A    between atoms: _128  and  _129
REMARK   52  A    between atoms: _129  and  _130
REMARK   53  A    between atoms: _135  and  _137
REMARK   54  A    between atoms: _137  and  _138
REMARK   55  A    between atoms: _137  and  _140
REMARK   56  A    between atoms: _140  and  _141
REMARK   57  A    between atoms: _146  and  _148
REMARK   58  A    between atoms: _148  and  _149
REMARK   59  A    between atoms: _148  and  _151
REMARK   60  A    between atoms: _151  and  _152
REMARK   61  A    between atoms: _155  and  _157
REMARK   62  A    between atoms: _157  and  _158
REMARK   63  A    between atoms: _157  and  _160
REMARK   64  A    between atoms: _160  and  _161
REMARK   65  A    between atoms: _164  and  _166
REMARK   66  A    between atoms: _166  and  _167
REMARK   67  A    between atoms: _166  and  _169
REMARK   68  A    between atoms: _169  and  _170
REMARK   69  A    between atoms: _170  and  _171
REMARK   70  A    between atoms: _173  and  _175
REMARK   71  A    between atoms: _175  and  _176
REMARK   72  A    between atoms: _175  and  _178
REMARK   73  A    between atoms: _178  and  _179
REMARK   74  A    between atoms: _184  and  _185
REMARK   75  A    between atoms: _187  and  _189
REMARK   76  A    between atoms: _189  and  _190
REMARK   77  A    between atoms: _189  and  _192
REMARK   78  A    between atoms: _192  and  _193
REMARK   79  A    between atoms: _196  and  _198
REMARK   80  A    between atoms: _198  and  _199
REMARK   81  A    between atoms: _198  and  _201
REMARK   82  A    between atoms: _204  and  _206
REMARK   83  A    between atoms: _206  and  _207
REMARK   84  A    between atoms: _210  and  _212
REMARK   85  A    between atoms: _212  and  _213
REMARK   86  A    between atoms: _212  and  _215
REMARK   87  A    between atoms: _215  and  _216
REMARK   88  A    between atoms: _219  and  _221
REMARK   89  A    between atoms: _221  and  _222
REMARK   90  A    between atoms: _221  and  _224
REMARK   91  A    between atoms: _224  and  _225
REMARK   92  A    between atoms: _228  and  _230
REMARK   93  A    between atoms: _230  and  _231
REMARK   94  A    between atoms: _230  and  _233
REMARK   95  A    between atoms: _233  and  _234
REMARK   96  A    between atoms: _239  and  _240
REMARK   97  A    between atoms: _242  and  _244
REMARK   98  A    between atoms: _244  and  _245
REMARK   99  A    between atoms: _244  and  _247
REMARK  100  A    between atoms: _247  and  _248
REMARK  101  A    between atoms: _253  and  _254
REMARK  102  A    between atoms: _256  and  _258
REMARK  103  A    between atoms: _258  and  _259
REMARK  104  A    between atoms: _258  and  _261
REMARK  105  A    between atoms: _261  and  _262
REMARK  106  A    between atoms: _265  and  _267
REMARK  107  A    between atoms: _267  and  _268
REMARK  108  A    between atoms: _267  and  _270
REMARK  109  A    between atoms: _270  and  _271
REMARK  110  A    between atoms: _273  and  _275
REMARK  111  A    between atoms: _275  and  _276
REMARK  112  A    between atoms: _275  and  _278
REMARK  113  A    between atoms: _278  and  _279
REMARK  114  A    between atoms: _279  and  _280
REMARK  115  A    between atoms: _280  and  _281
REMARK  116  A    between atoms: _290  and  _292
REMARK  117  A    between atoms: _292  and  _293
REMARK  118  A    between atoms: _295  and  _297
REMARK  119  A    between atoms: _297  and  _298
REMARK  120  A    between atoms: _297  and  _300
REMARK  121  A    between atoms: _303  and  _305
REMARK  122  A    between atoms: _305  and  _306
REMARK  123  A    between atoms: _305  and  _308
REMARK  124  A    between atoms: _308  and  _309
REMARK  125  A    between atoms: _312  and  _314
REMARK  126  A    between atoms: _314  and  _315
REMARK  127  A    between atoms: _317  and  _319
REMARK  128  A    between atoms: _319  and  _320
REMARK  129  A    between atoms: _323  and  _325
REMARK  130  A    between atoms: _325  and  _326
REMARK  131  A    between atoms: _325  and  _328
REMARK  132  A    between atoms: _328  and  _329
REMARK  133  A    between atoms: _329  and  _330
REMARK  134  A    between atoms: _333  and  _335
REMARK  135  A    between atoms: _335  and  _336
REMARK  136  A    between atoms: _335  and  _338
REMARK  137  A    between atoms: _338  and  _339
REMARK  138  A    between atoms: _344  and  _346
REMARK  139  A    between atoms: _346  and  _347
REMARK  140  A    between atoms: _346  and  _349
REMARK  141  A    between atoms: _349  and  _350
REMARK  142  A    between atoms: _350  and  _351
REMARK  143  A    between atoms: _351  and  _352
REMARK  144  A    between atoms: _361  and  _363
REMARK  145  A    between atoms: _363  and  _364
REMARK  146  A    between atoms: _366  and  _368
REMARK  147  A    between atoms: _368  and  _369
REMARK  148  A    between atoms: _368  and  _371
REMARK  149  A    between atoms: _371  and  _372
REMARK  150  A    between atoms: _375  and  _377
REMARK  151  A    between atoms: _377  and  _378
REMARK  152  A    between atoms: _377  and  _380
REMARK  153  A    between atoms: _380  and  _381
REMARK  154  A    between atoms: _381  and  _382
REMARK  155  A    between atoms: _387  and  _389
REMARK  156  A    between atoms: _389  and  _390
REMARK  157  A    between atoms: _392  and  _394
REMARK  158  A    between atoms: _394  and  _395
REMARK  159  A    between atoms: _394  and  _397
REMARK  160  A    between atoms: _397  and  _398
REMARK  161  A    between atoms: _404  and  _406
REMARK  162  A    between atoms: _406  and  _407
REMARK  163  A    between atoms: _409  and  _411
REMARK  164  A    between atoms: _411  and  _412
REMARK  165  A    between atoms: _411  and  _414
REMARK  166  A    between atoms: _414  and  _415
REMARK  167  A    between atoms: _418  and  _420
REMARK  168  A    between atoms: _420  and  _421
REMARK  169  A    between atoms: _420  and  _423
REMARK  170  A    between atoms: _423  and  _424
REMARK  171  A    between atoms: _426  and  _428
REMARK  172  A    between atoms: _428  and  _429
REMARK  173  A    between atoms: _428  and  _431
REMARK  174  A    between atoms: _431  and  _432
REMARK  175  A    between atoms: _432  and  _433
REMARK  176  A    between atoms: _438  and  _440
REMARK  177  A    between atoms: _440  and  _441
REMARK  178  A    between atoms: _440  and  _443
REMARK  179  A    between atoms: _443  and  _444
REMARK  180  A    between atoms: _447  and  _449
REMARK  181  A    between atoms: _449  and  _450
REMARK  182  A    between atoms: _449  and  _452
REMARK  183  A    between atoms: _452  and  _453
REMARK  184  A    between atoms: _455  and  _457
REMARK  185  A    between atoms: _457  and  _458
REMARK  186  A    between atoms: _460  and  _462
REMARK  187  A    between atoms: _462  and  _463
REMARK  188  A    between atoms: _462  and  _465
REMARK  189  A    between atoms: _465  and  _466
REMARK  190  A    between atoms: _468  and  _470
REMARK  191  A    between atoms: _470  and  _471
REMARK  192  A    between atoms: _474  and  _476
REMARK  193  A    between atoms: _476  and  _477
REMARK  194  A    between atoms: _476  and  _479
REMARK  195  A    between atoms: _479  and  _480
REMARK  196  A    between atoms: _483  and  _485
REMARK  197  A    between atoms: _485  and  _486
REMARK  198  A    between atoms: _485  and  _488
REMARK  199  A    between atoms: _491  and  _493
REMARK  200  A    between atoms: _493  and  _494
REMARK  201  A    between atoms: _493  and  _496
REMARK  202  A    between atoms: _496  and  _497
REMARK  203  A    between atoms: _497  and  _498
REMARK  204  A    between atoms: _498  and  _499
REMARK  205  A    between atoms: _499  and  _500
REMARK  206  A    between atoms: _505  and  _506
REMARK                            x       y       z     vdW  Elec       q    Type
REMARK                         _______ _______ _______ _____ _____    ______ ____
ROOT
ATOM      1  O   HOH     1      45.622  24.957  22.342  0.00  0.00    +0.000 OA
ENDROOT
TORSDOF 0
REMARK  Name = ../refined-set-2016/1tjp/1tjp_pocket.pdb
REMARK  206 active torsions:
REMARK  status: ('A' for Active; 'I' for Inactive)
REMARK    1  A    between atoms: _1  and  _3
REMARK    2  A    between atoms: _3  and  _4
REMARK    3  A    between atoms: _3  and  _6
REMARK    4  A    between atoms: _10  and  _11
REMARK    5  A    between atoms: _16  and  _18
REMARK    6  A    between atoms: _18  and  _19
REMARK    7  A    between atoms: _18  and  _21
REMARK    8  A    between atoms: _21  and  _22
REMARK    9  A    between atoms: _28  and  _30
REMARK   10  A    between atoms: _30  and  _31
REMARK   11  A    between atoms: _30  and  _33
REMARK   12  A    between atoms: _36  and  _38
REMARK   13  A    between atoms: _38  and  _39
REMARK   14  A    between atoms: _38  and  _41
REMARK   15  A    between atoms: _41  and  _42
REMARK   16  A    between atoms: _45  and  _47
REMARK   17  A    between atoms: _47  and  _48
REMARK   18  A    between atoms: _47  and  _50
REMARK   19  A    between atoms: _50  and  _51
REMARK   20  A    between atoms: _51  and  _52
REMARK   21  A    between atoms: _55  and  _57
REMARK   22  A    between atoms: _57  and  _58
REMARK   23  A    between atoms: _57  and  _60
REMARK   24  A    between atoms: _60  and  _61
REMARK   25  A    between atoms: _64  and  _66
REMARK   26  A    between atoms: _66  and  _67
REMARK   27  A    between atoms: _70  and  _71
REMARK   28  A    between atoms: _76  and  _78
REMARK   29  A    between atoms: _78  and  _79
REMARK   30  A    between atoms: _78  and  _81
REMARK   31  A    between atoms: _81  and  _82
REMARK   32  A    between atoms: _85  and  _87
REMARK   33  A    between atoms: _87  and  _88
REMARK   34  A    between atoms: _91  and  _93
REMARK   35  A    between atoms: _93  and  _94
REMARK   36  A    between atoms: _93  and  _96
REMARK   37  A    between atoms: _96  and  _97
REMARK   38  A    between atoms: _100  and  _102
REMARK   39  A    between atoms: _102  and  _103
REMARK   40  A    between atoms: _105  and  _107
REMARK   41  A    between atoms: _107  and  _108
REMARK   42  A    between atoms: _107  and  _110
REMARK   43  A    between atoms: _110  and  _111
REMARK   44  A    between atoms: _114  and  _116
REMARK   45  A    between atoms: _116  and  _117
REMARK   46  A    between atoms: _116  and  _119
REMARK   47  A    between atoms: _119  and  _120
REMARK   48  A    between atoms: _123  and  _125
REMARK   49  A    between atoms: _125  and  _126
REMARK   50  A    between atoms: _125  and  _128
REMARK   51  A    between atoms: _128  and  _129
REMARK   52  A    between atoms: _129  and  _130
REMARK   53  A    between atoms: _135  and  _137
REMARK   54  A    between atoms: _137  and  _138
REMARK   55  A    between atoms: _137  and  _140
REMARK   56  A    between atoms: _140  and  _141
REMARK   57  A    between atoms: _146  and  _148
REMARK   58  A    between atoms: _148  and  _149
REMARK   59  A    between atoms: _148  and  _151
REMARK   60  A    between atoms: _151  and  _152
REMARK   61  A    between atoms: _155  and  _157
REMARK   62  A    between atoms: _157  and  _158
REMARK   63  A    between atoms: _157  and  _160
REMARK   64  A    between atoms: _160  and  _161
REMARK   65  A    between atoms: _164  and  _166
REMARK   66  A    between atoms: _166  and  _167
REMARK   67  A    between atoms: _166  and  _169
REMARK   68  A    between atoms: _169  and  _170
REMARK   69  A    between atoms: _170  and  _171
REMARK   70  A    between atoms: _173  and  _175
REMARK   71  A    between atoms: _175  and  _176
REMARK   72  A    between atoms: _175  and  _178
REMARK   73  A    between atoms: _178  and  _179
REMARK   74  A    between atoms: _184  and  _185
REMARK   75  A    between atoms: _187  and  _189
REMARK   76  A    between atoms: _189  and  _190
REMARK   77  A    between atoms: _189  and  _192
REMARK   78  A    between atoms: _192  and  _193
REMARK   79  A    between atoms: _196  and  _198
REMARK   80  A    between atoms: _198  and  _199
REMARK   81  A    between atoms: _198  and  _201
REMARK   82  A    between atoms: _204  and  _206
REMARK   83  A    between atoms: _206  and  _207
REMARK   84  A    between atoms: _210  and  _212
REMARK   85  A    between atoms: _212  and  _213
REMARK   86  A    between atoms: _212  and  _215
REMARK   87  A    between atoms: _215  and  _216
REMARK   88  A    between atoms: _219  and  _221
REMARK   89  A    between atoms: _221  and  _222
REMARK   90  A    between atoms: _221  and  _224
REMARK   91  A    between atoms: _224  and  _225
REMARK   92  A    between atoms: _228  and  _230
REMARK   93  A    between atoms: _230  and  _231
REMARK   94  A    between atoms: _230  and  _233
REMARK   95  A    between atoms: _233  and  _234
REMARK   96  A    between atoms: _239  and  _240
REMARK   97  A    between atoms: _242  and  _244
REMARK   98  A    between atoms: _244  and  _245
REMARK   99  A    between atoms: _244  and  _247
REMARK  100  A    between atoms: _247  and  _248
REMARK  101  A    between atoms: _253  and  _254
REMARK  102  A    between atoms: _256  and  _258
REMARK  103  A    between atoms: _258  and  _259
REMARK  104  A    between atoms: _258  and  _261
REMARK  105  A    between atoms: _261  and  _262
REMARK  106  A    between atoms: _265  and  _267
REMARK  107  A    between atoms: _267  and  _268
REMARK  108  A    between atoms: _267  and  _270
REMARK  109  A    between atoms: _270  and  _271
REMARK  110  A    between atoms: _273  and  _275
REMARK  111  A    between atoms: _275  and  _276
REMARK  112  A    between atoms: _275  and  _278
REMARK  113  A    between atoms: _278  and  _279
REMARK  114  A    between atoms: _279  and  _280
REMARK  115  A    between atoms: _280  and  _281
REMARK  116  A    between atoms: _290  and  _292
REMARK  117  A    between atoms: _292  and  _293
REMARK  118  A    between atoms: _295  and  _297
REMARK  119  A    between atoms: _297  and  _298
REMARK  120  A    between atoms: _297  and  _300
REMARK  121  A    between atoms: _303  and  _305
REMARK  122  A    between atoms: _305  and  _306
REMARK  123  A    between atoms: _305  and  _308
REMARK  124  A    between atoms: _308  and  _309
REMARK  125  A    between atoms: _312  and  _314
REMARK  126  A    between atoms: _314  and  _315
REMARK  127  A    between atoms: _317  and  _319
REMARK  128  A    between atoms: _319  and  _320
REMARK  129  A    between atoms: _323  and  _325
REMARK  130  A    between atoms: _325  and  _326
REMARK  131  A    between atoms: _325  and  _328
REMARK  132  A    between atoms: _328  and  _329
REMARK  133  A    between atoms: _329  and  _330
REMARK  134  A    between atoms: _333  and  _335
REMARK  135  A    between atoms: _335  and  _336
REMARK  136  A    between atoms: _335  and  _338
REMARK  137  A    between atoms: _338  and  _339
REMARK  138  A    between atoms: _344  and  _346
REMARK  139  A    between atoms: _346  and  _347
REMARK  140  A    between atoms: _346  and  _349
REMARK  141  A    between atoms: _349  and  _350
REMARK  142  A    between atoms: _350  and  _351
REMARK  143  A    between atoms: _351  and  _352
REMARK  144  A    between atoms: _361  and  _363
REMARK  145  A    between atoms: _363  and  _364
REMARK  146  A    between atoms: _366  and  _368
REMARK  147  A    between atoms: _368  and  _369
REMARK  148  A    between atoms: _368  and  _371
REMARK  149  A    between atoms: _371  and  _372
REMARK  150  A    between atoms: _375  and  _377
REMARK  151  A    between atoms: _377  and  _378
REMARK  152  A    between atoms: _377  and  _380
REMARK  153  A    between atoms: _380  and  _381
REMARK  154  A    between atoms: _381  and  _382
REMARK  155  A    between atoms: _387  and  _389
REMARK  156  A    between atoms: _389  and  _390
REMARK  157  A    between atoms: _392  and  _394
REMARK  158  A    between atoms: _394  and  _395
REMARK  159  A    between atoms: _394  and  _397
REMARK  160  A    between atoms: _397  and  _398
REMARK  161  A    between atoms: _404  and  _406
REMARK  162  A    between atoms: _406  and  _407
REMARK  163  A    between atoms: _409  and  _411
REMARK  164  A    between atoms: _411  and  _412
REMARK  165  A    between atoms: _411  and  _414
REMARK  166  A    between atoms: _414  and  _415
REMARK  167  A    between atoms: _418  and  _420
REMARK  168  A    between atoms: _420  and  _421
REMARK  169  A    between atoms: _420  and  _423
REMARK  170  A    between atoms: _423  and  _424
REMARK  171  A    between atoms: _426  and  _428
REMARK  172  A    between atoms: _428  and  _429
REMARK  173  A    between atoms: _428  and  _431
REMARK  174  A    between atoms: _431  and  _432
REMARK  175  A    between atoms: _432  and  _433
REMARK  176  A    between atoms: _438  and  _440
REMARK  177  A    between atoms: _440  and  _441
REMARK  178  A    between atoms: _440  and  _443
REMARK  179  A    between atoms: _443  and  _444
REMARK  180  A    between atoms: _447  and  _449
REMARK  181  A    between atoms: _449  and  _450
REMARK  182  A    between atoms: _449  and  _452
REMARK  183  A    between atoms: _452  and  _453
REMARK  184  A    between atoms: _455  and  _457
REMARK  185  A    between atoms: _457  and  _458
REMARK  186  A    between atoms: _460  and  _462
REMARK  187  A    between atoms: _462  and  _463
REMARK  188  A    between atoms: _462  and  _465
REMARK  189  A    between atoms: _465  and  _466
REMARK  190  A    between atoms: _468  and  _470
REMARK  191  A    between atoms: _470  and  _471
REMARK  192  A    between atoms: _474  and  _476
REMARK  193  A    between atoms: _476  and  _477
REMARK  194  A    between atoms: _476  and  _479
REMARK  195  A    between atoms: _479  and  _480
REMARK  196  A    between atoms: _483  and  _485
REMARK  197  A    between atoms: _485  and  _486
REMARK  198  A    between atoms: _485  and  _488
REMARK  199  A    between atoms: _491  and  _493
REMARK  200  A    between atoms: _493  and  _494
REMARK  201  A    between atoms: _493  and  _496
REMARK  202  A    between atoms: _496  and  _497
REMARK  203  A    between atoms: _497  and  _498
REMARK  204  A    between atoms: _498  and  _499
REMARK  205  A    between atoms: _499  and  _500
REMARK  206  A    between atoms: _505  and  _506
REMARK                            x       y       z     vdW  Elec       q    Type
REMARK                         _______ _______ _______ _____ _____    ______ ____
ROOT
ATOM      1  O   HOH     1      53.751  31.015   9.554  0.00  0.00    +0.000 OA
ENDROOT
TORSDOF 0
REMARK  Name = ../refined-set-2016/1tjp/1tjp_pocket.pdb
REMARK  206 active torsions:
REMARK  status: ('A' for Active; 'I' for Inactive)
REMARK    1  A    between atoms: _1  and  _3
REMARK    2  A    between atoms: _3  and  _4
REMARK    3  A    between atoms: _3  and  _6
REMARK    4  A    between atoms: _10  and  _11
REMARK    5  A    between atoms: _16  and  _18
REMARK    6  A    between atoms: _18  and  _19
REMARK    7  A    between atoms: _18  and  _21
REMARK    8  A    between atoms: _21  and  _22
REMARK    9  A    between atoms: _28  and  _30
REMARK   10  A    between atoms: _30  and  _31
REMARK   11  A    between atoms: _30  and  _33
REMARK   12  A    between atoms: _36  and  _38
REMARK   13  A    between atoms: _38  and  _39
REMARK   14  A    between atoms: _38  and  _41
REMARK   15  A    between atoms: _41  and  _42
REMARK   16  A    between atoms: _45  and  _47
REMARK   17  A    between atoms: _47  and  _48
REMARK   18  A    between atoms: _47  and  _50
REMARK   19  A    between atoms: _50  and  _51
REMARK   20  A    between atoms: _51  and  _52
REMARK   21  A    between atoms: _55  and  _57
REMARK   22  A    between atoms: _57  and  _58
REMARK   23  A    between atoms: _57  and  _60
REMARK   24  A    between atoms: _60  and  _61
REMARK   25  A    between atoms: _64  and  _66
REMARK   26  A    between atoms: _66  and  _67
REMARK   27  A    between atoms: _70  and  _71
REMARK   28  A    between atoms: _76  and  _78
REMARK   29  A    between atoms: _78  and  _79
REMARK   30  A    between atoms: _78  and  _81
REMARK   31  A    between atoms: _81  and  _82
REMARK   32  A    between atoms: _85  and  _87
REMARK   33  A    between atoms: _87  and  _88
REMARK   34  A    between atoms: _91  and  _93
REMARK   35  A    between atoms: _93  and  _94
REMARK   36  A    between atoms: _93  and  _96
REMARK   37  A    between atoms: _96  and  _97
REMARK   38  A    between atoms: _100  and  _102
REMARK   39  A    between atoms: _102  and  _103
REMARK   40  A    between atoms: _105  and  _107
REMARK   41  A    between atoms: _107  and  _108
REMARK   42  A    between atoms: _107  and  _110
REMARK   43  A    between atoms: _110  and  _111
REMARK   44  A    between atoms: _114  and  _116
REMARK   45  A    between atoms: _116  and  _117
REMARK   46  A    between atoms: _116  and  _119
REMARK   47  A    between atoms: _119  and  _120
REMARK   48  A    between atoms: _123  and  _125
REMARK   49  A    between atoms: _125  and  _126
REMARK   50  A    between atoms: _125  and  _128
REMARK   51  A    between atoms: _128  and  _129
REMARK   52  A    between atoms: _129  and  _130
REMARK   53  A    between atoms: _135  and  _137
REMARK   54  A    between atoms: _137  and  _138
REMARK   55  A    between atoms: _137  and  _140
REMARK   56  A    between atoms: _140  and  _141
REMARK   57  A    between atoms: _146  and  _148
REMARK   58  A    between atoms: _148  and  _149
REMARK   59  A    between atoms: _148  and  _151
REMARK   60  A    between atoms: _151  and  _152
REMARK   61  A    between atoms: _155  and  _157
REMARK   62  A    between atoms: _157  and  _158
REMARK   63  A    between atoms: _157  and  _160
REMARK   64  A    between atoms: _160  and  _161
REMARK   65  A    between atoms: _164  and  _166
REMARK   66  A    between atoms: _166  and  _167
REMARK   67  A    between atoms: _166  and  _169
REMARK   68  A    between atoms: _169  and  _170
REMARK   69  A    between atoms: _170  and  _171
REMARK   70  A    between atoms: _173  and  _175
REMARK   71  A    between atoms: _175  and  _176
REMARK   72  A    between atoms: _175  and  _178
REMARK   73  A    between atoms: _178  and  _179
REMARK   74  A    between atoms: _184  and  _185
REMARK   75  A    between atoms: _187  and  _189
REMARK   76  A    between atoms: _189  and  _190
REMARK   77  A    between atoms: _189  and  _192
REMARK   78  A    between atoms: _192  and  _193
REMARK   79  A    between atoms: _196  and  _198
REMARK   80  A    between atoms: _198  and  _199
REMARK   81  A    between atoms: _198  and  _201
REMARK   82  A    between atoms: _204  and  _206
REMARK   83  A    between atoms: _206  and  _207
REMARK   84  A    between atoms: _210  and  _212
REMARK   85  A    between atoms: _212  and  _213
REMARK   86  A    between atoms: _212  and  _215
REMARK   87  A    between atoms: _215  and  _216
REMARK   88  A    between atoms: _219  and  _221
REMARK   89  A    between atoms: _221  and  _222
REMARK   90  A    between atoms: _221  and  _224
REMARK   91  A    between atoms: _224  and  _225
REMARK   92  A    between atoms: _228  and  _230
REMARK   93  A    between atoms: _230  and  _231
REMARK   94  A    between atoms: _230  and  _233
REMARK   95  A    between atoms: _233  and  _234
REMARK   96  A    between atoms: _239  and  _240
REMARK   97  A    between atoms: _242  and  _244
REMARK   98  A    between atoms: _244  and  _245
REMARK   99  A    between atoms: _244  and  _247
REMARK  100  A    between atoms: _247  and  _248
REMARK  101  A    between atoms: _253  and  _254
REMARK  102  A    between atoms: _256  and  _258
REMARK  103  A    between atoms: _258  and  _259
REMARK  104  A    between atoms: _258  and  _261
REMARK  105  A    between atoms: _261  and  _262
REMARK  106  A    between atoms: _265  and  _267
REMARK  107  A    between atoms: _267  and  _268
REMARK  108  A    between atoms: _267  and  _270
REMARK  109  A    between atoms: _270  and  _271
REMARK  110  A    between atoms: _273  and  _275
REMARK  111  A    between atoms: _275  and  _276
REMARK  112  A    between atoms: _275  and  _278
REMARK  113  A    between atoms: _278  and  _279
REMARK  114  A    between atoms: _279  and  _280
REMARK  115  A    between atoms: _280  and  _281
REMARK  116  A    between atoms: _290  and  _292
REMARK  117  A    between atoms: _292  and  _293
REMARK  118  A    between atoms: _295  and  _297
REMARK  119  A    between atoms: _297  and  _298
REMARK  120  A    between atoms: _297  and  _300
REMARK  121  A    between atoms: _303  and  _305
REMARK  122  A    between atoms: _305  and  _306
REMARK  123  A    between atoms: _305  and  _308
REMARK  124  A    between atoms: _308  and  _309
REMARK  125  A    between atoms: _312  and  _314
REMARK  126  A    between atoms: _314  and  _315
REMARK  127  A    between atoms: _317  and  _319
REMARK  128  A    between atoms: _319  and  _320
REMARK  129  A    between atoms: _323  and  _325
REMARK  130  A    between atoms: _325  and  _326
REMARK  131  A    between atoms: _325  and  _328
REMARK  132  A    between atoms: _328  and  _329
REMARK  133  A    between atoms: _329  and  _330
REMARK  134  A    between atoms: _333  and  _335
REMARK  135  A    between atoms: _335  and  _336
REMARK  136  A    between atoms: _335  and  _338
REMARK  137  A    between atoms: _338  and  _339
REMARK  138  A    between atoms: _344  and  _346
REMARK  139  A    between atoms: _346  and  _347
REMARK  140  A    between atoms: _346  and  _349
REMARK  141  A    between atoms: _349  and  _350
REMARK  142  A    between atoms: _350  and  _351
REMARK  143  A    between atoms: _351  and  _352
REMARK  144  A    between atoms: _361  and  _363
REMARK  145  A    between atoms: _363  and  _364
REMARK  146  A    between atoms: _366  and  _368
REMARK  147  A    between atoms: _368  and  _369
REMARK  148  A    between atoms: _368  and  _371
REMARK  149  A    between atoms: _371  and  _372
REMARK  150  A    between atoms: _375  and  _377
REMARK  151  A    between atoms: _377  and  _378
REMARK  152  A    between atoms: _377  and  _380
REMARK  153  A    between atoms: _380  and  _381
REMARK  154  A    between atoms: _381  and  _382
REMARK  155  A    between atoms: _387  and  _389
REMARK  156  A    between atoms: _389  and  _390
REMARK  157  A    between atoms: _392  and  _394
REMARK  158  A    between atoms: _394  and  _395
REMARK  159  A    between atoms: _394  and  _397
REMARK  160  A    between atoms: _397  and  _398
REMARK  161  A    between atoms: _404  and  _406
REMARK  162  A    between atoms: _406  and  _407
REMARK  163  A    between atoms: _409  and  _411
REMARK  164  A    between atoms: _411  and  _412
REMARK  165  A    between atoms: _411  and  _414
REMARK  166  A    between atoms: _414  and  _415
REMARK  167  A    between atoms: _418  and  _420
REMARK  168  A    between atoms: _420  and  _421
REMARK  169  A    between atoms: _420  and  _423
REMARK  170  A    between atoms: _423  and  _424
REMARK  171  A    between atoms: _426  and  _428
REMARK  172  A    between atoms: _428  and  _429
REMARK  173  A    between atoms: _428  and  _431
REMARK  174  A    between atoms: _431  and  _432
REMARK  175  A    between atoms: _432  and  _433
REMARK  176  A    between atoms: _438  and  _440
REMARK  177  A    between atoms: _440  and  _441
REMARK  178  A    between atoms: _440  and  _443
REMARK  179  A    between atoms: _443  and  _444
REMARK  180  A    between atoms: _447  and  _449
REMARK  181  A    between atoms: _449  and  _450
REMARK  182  A    between atoms: _449  and  _452
REMARK  183  A    between atoms: _452  and  _453
REMARK  184  A    between atoms: _455  and  _457
REMARK  185  A    between atoms: _457  and  _458
REMARK  186  A    between atoms: _460  and  _462
REMARK  187  A    between atoms: _462  and  _463
REMARK  188  A    between atoms: _462  and  _465
REMARK  189  A    between atoms: _465  and  _466
REMARK  190  A    between atoms: _468  and  _470
REMARK  191  A    between atoms: _470  and  _471
REMARK  192  A    between atoms: _474  and  _476
REMARK  193  A    between atoms: _476  and  _477
REMARK  194  A    between atoms: _476  and  _479
REMARK  195  A    between atoms: _479  and  _480
REMARK  196  A    between atoms: _483  and  _485
REMARK  197  A    between atoms: _485  and  _486
REMARK  198  A    between atoms: _485  and  _488
REMARK  199  A    between atoms: _491  and  _493
REMARK  200  A    between atoms: _493  and  _494
REMARK  201  A    between atoms: _493  and  _496
REMARK  202  A    between atoms: _496  and  _497
REMARK  203  A    between atoms: _497  and  _498
REMARK  204  A    between atoms: _498  and  _499
REMARK  205  A    between atoms: _499  and  _500
REMARK  206  A    between atoms: _505  and  _506
REMARK                            x       y       z     vdW  Elec       q    Type
REMARK                         _______ _______ _______ _____ _____    ______ ____
ROOT
ATOM      1  O   HOH     1      56.051  27.538  21.792  0.00  0.00    +0.000 OA
ENDROOT
TORSDOF 0
REMARK  Name = ../refined-set-2016/1tjp/1tjp_pocket.pdb
REMARK  206 active torsions:
REMARK  status: ('A' for Active; 'I' for Inactive)
REMARK    1  A    between atoms: _1  and  _3
REMARK    2  A    between atoms: _3  and  _4
REMARK    3  A    between atoms: _3  and  _6
REMARK    4  A    between atoms: _10  and  _11
REMARK    5  A    between atoms: _16  and  _18
REMARK    6  A    between atoms: _18  and  _19
REMARK    7  A    between atoms: _18  and  _21
REMARK    8  A    between atoms: _21  and  _22
REMARK    9  A    between atoms: _28  and  _30
REMARK   10  A    between atoms: _30  and  _31
REMARK   11  A    between atoms: _30  and  _33
REMARK   12  A    between atoms: _36  and  _38
REMARK   13  A    between atoms: _38  and  _39
REMARK   14  A    between atoms: _38  and  _41
REMARK   15  A    between atoms: _41  and  _42
REMARK   16  A    between atoms: _45  and  _47
REMARK   17  A    between atoms: _47  and  _48
REMARK   18  A    between atoms: _47  and  _50
REMARK   19  A    between atoms: _50  and  _51
REMARK   20  A    between atoms: _51  and  _52
REMARK   21  A    between atoms: _55  and  _57
REMARK   22  A    between atoms: _57  and  _58
REMARK   23  A    between atoms: _57  and  _60
REMARK   24  A    between atoms: _60  and  _61
REMARK   25  A    between atoms: _64  and  _66
REMARK   26  A    between atoms: _66  and  _67
REMARK   27  A    between atoms: _70  and  _71
REMARK   28  A    between atoms: _76  and  _78
REMARK   29  A    between atoms: _78  and  _79
REMARK   30  A    between atoms: _78  and  _81
REMARK   31  A    between atoms: _81  and  _82
REMARK   32  A    between atoms: _85  and  _87
REMARK   33  A    between atoms: _87  and  _88
REMARK   34  A    between atoms: _91  and  _93
REMARK   35  A    between atoms: _93  and  _94
REMARK   36  A    between atoms: _93  and  _96
REMARK   37  A    between atoms: _96  and  _97
REMARK   38  A    between atoms: _100  and  _102
REMARK   39  A    between atoms: _102  and  _103
REMARK   40  A    between atoms: _105  and  _107
REMARK   41  A    between atoms: _107  and  _108
REMARK   42  A    between atoms: _107  and  _110
REMARK   43  A    between atoms: _110  and  _111
REMARK   44  A    between atoms: _114  and  _116
REMARK   45  A    between atoms: _116  and  _117
REMARK   46  A    between atoms: _116  and  _119
REMARK   47  A    between atoms: _119  and  _120
REMARK   48  A    between atoms: _123  and  _125
REMARK   49  A    between atoms: _125  and  _126
REMARK   50  A    between atoms: _125  and  _128
REMARK   51  A    between atoms: _128  and  _129
REMARK   52  A    between atoms: _129  and  _130
REMARK   53  A    between atoms: _135  and  _137
REMARK   54  A    between atoms: _137  and  _138
REMARK   55  A    between atoms: _137  and  _140
REMARK   56  A    between atoms: _140  and  _141
REMARK   57  A    between atoms: _146  and  _148
REMARK   58  A    between atoms: _148  and  _149
REMARK   59  A    between atoms: _148  and  _151
REMARK   60  A    between atoms: _151  and  _152
REMARK   61  A    between atoms: _155  and  _157
REMARK   62  A    between atoms: _157  and  _158
REMARK   63  A    between atoms: _157  and  _160
REMARK   64  A    between atoms: _160  and  _161
REMARK   65  A    between atoms: _164  and  _166
REMARK   66  A    between atoms: _166  and  _167
REMARK   67  A    between atoms: _166  and  _169
REMARK   68  A    between atoms: _169  and  _170
REMARK   69  A    between atoms: _170  and  _171
REMARK   70  A    between atoms: _173  and  _175
REMARK   71  A    between atoms: _175  and  _176
REMARK   72  A    between atoms: _175  and  _178
REMARK   73  A    between atoms: _178  and  _179
REMARK   74  A    between atoms: _184  and  _185
REMARK   75  A    between atoms: _187  and  _189
REMARK   76  A    between atoms: _189  and  _190
REMARK   77  A    between atoms: _189  and  _192
REMARK   78  A    between atoms: _192  and  _193
REMARK   79  A    between atoms: _196  and  _198
REMARK   80  A    between atoms: _198  and  _199
REMARK   81  A    between atoms: _198  and  _201
REMARK   82  A    between atoms: _204  and  _206
REMARK   83  A    between atoms: _206  and  _207
REMARK   84  A    between atoms: _210  and  _212
REMARK   85  A    between atoms: _212  and  _213
REMARK   86  A    between atoms: _212  and  _215
REMARK   87  A    between atoms: _215  and  _216
REMARK   88  A    between atoms: _219  and  _221
REMARK   89  A    between atoms: _221  and  _222
REMARK   90  A    between atoms: _221  and  _224
REMARK   91  A    between atoms: _224  and  _225
REMARK   92  A    between atoms: _228  and  _230
REMARK   93  A    between atoms: _230  and  _231
REMARK   94  A    between atoms: _230  and  _233
REMARK   95  A    between atoms: _233  and  _234
REMARK   96  A    between atoms: _239  and  _240
REMARK   97  A    between atoms: _242  and  _244
REMARK   98  A    between atoms: _244  and  _245
REMARK   99  A    between atoms: _244  and  _247
REMARK  100  A    between atoms: _247  and  _248
REMARK  101  A    between atoms: _253  and  _254
REMARK  102  A    between atoms: _256  and  _258
REMARK  103  A    between atoms: _258  and  _259
REMARK  104  A    between atoms: _258  and  _261
REMARK  105  A    between atoms: _261  and  _262
REMARK  106  A    between atoms: _265  and  _267
REMARK  107  A    between atoms: _267  and  _268
REMARK  108  A    between atoms: _267  and  _270
REMARK  109  A    between atoms: _270  and  _271
REMARK  110  A    between atoms: _273  and  _275
REMARK  111  A    between atoms: _275  and  _276
REMARK  112  A    between atoms: _275  and  _278
REMARK  113  A    between atoms: _278  and  _279
REMARK  114  A    between atoms: _279  and  _280
REMARK  115  A    between atoms: _280  and  _281
REMARK  116  A    between atoms: _290  and  _292
REMARK  117  A    between atoms: _292  and  _293
REMARK  118  A    between atoms: _295  and  _297
REMARK  119  A    between atoms: _297  and  _298
REMARK  120  A    between atoms: _297  and  _300
REMARK  121  A    between atoms: _303  and  _305
REMARK  122  A    between atoms: _305  and  _306
REMARK  123  A    between atoms: _305  and  _308
REMARK  124  A    between atoms: _308  and  _309
REMARK  125  A    between atoms: _312  and  _314
REMARK  126  A    between atoms: _314  and  _315
REMARK  127  A    between atoms: _317  and  _319
REMARK  128  A    between atoms: _319  and  _320
REMARK  129  A    between atoms: _323  and  _325
REMARK  130  A    between atoms: _325  and  _326
REMARK  131  A    between atoms: _325  and  _328
REMARK  132  A    between atoms: _328  and  _329
REMARK  133  A    between atoms: _329  and  _330
REMARK  134  A    between atoms: _333  and  _335
REMARK  135  A    between atoms: _335  and  _336
REMARK  136  A    between atoms: _335  and  _338
REMARK  137  A    between atoms: _338  and  _339
REMARK  138  A    between atoms: _344  and  _346
REMARK  139  A    between atoms: _346  and  _347
REMARK  140  A    between atoms: _346  and  _349
REMARK  141  A    between atoms: _349  and  _350
REMARK  142  A    between atoms: _350  and  _351
REMARK  143  A    between atoms: _351  and  _352
REMARK  144  A    between atoms: _361  and  _363
REMARK  145  A    between atoms: _363  and  _364
REMARK  146  A    between atoms: _366  and  _368
REMARK  147  A    between atoms: _368  and  _369
REMARK  148  A    between atoms: _368  and  _371
REMARK  149  A    between atoms: _371  and  _372
REMARK  150  A    between atoms: _375  and  _377
REMARK  151  A    between atoms: _377  and  _378
REMARK  152  A    between atoms: _377  and  _380
REMARK  153  A    between atoms: _380  and  _381
REMARK  154  A    between atoms: _381  and  _382
REMARK  155  A    between atoms: _387  and  _389
REMARK  156  A    between atoms: _389  and  _390
REMARK  157  A    between atoms: _392  and  _394
REMARK  158  A    between atoms: _394  and  _395
REMARK  159  A    between atoms: _394  and  _397
REMARK  160  A    between atoms: _397  and  _398
REMARK  161  A    between atoms: _404  and  _406
REMARK  162  A    between atoms: _406  and  _407
REMARK  163  A    between atoms: _409  and  _411
REMARK  164  A    between atoms: _411  and  _412
REMARK  165  A    between atoms: _411  and  _414
REMARK  166  A    between atoms: _414  and  _415
REMARK  167  A    between atoms: _418  and  _420
REMARK  168  A    between atoms: _420  and  _421
REMARK  169  A    between atoms: _420  and  _423
REMARK  170  A    between atoms: _423  and  _424
REMARK  171  A    between atoms: _426  and  _428
REMARK  172  A    between atoms: _428  and  _429
REMARK  173  A    between atoms: _428  and  _431
REMARK  174  A    between atoms: _431  and  _432
REMARK  175  A    between atoms: _432  and  _433
REMARK  176  A    between atoms: _438  and  _440
REMARK  177  A    between atoms: _440  and  _441
REMARK  178  A    between atoms: _440  and  _443
REMARK  179  A    between atoms: _443  and  _444
REMARK  180  A    between atoms: _447  and  _449
REMARK  181  A    between atoms: _449  and  _450
REMARK  182  A    between atoms: _449  and  _452
REMARK  183  A    between atoms: _452  and  _453
REMARK  184  A    between atoms: _455  and  _457
REMARK  185  A    between atoms: _457  and  _458
REMARK  186  A    between atoms: _460  and  _462
REMARK  187  A    between atoms: _462  and  _463
REMARK  188  A    between atoms: _462  and  _465
REMARK  189  A    between atoms: _465  and  _466
REMARK  190  A    between atoms: _468  and  _470
REMARK  191  A    between atoms: _470  and  _471
REMARK  192  A    between atoms: _474  and  _476
REMARK  193  A    between atoms: _476  and  _477
REMARK  194  A    between atoms: _476  and  _479
REMARK  195  A    between atoms: _479  and  _480
REMARK  196  A    between atoms: _483  and  _485
REMARK  197  A    between atoms: _485  and  _486
REMARK  198  A    between atoms: _485  and  _488
REMARK  199  A    between atoms: _491  and  _493
REMARK  200  A    between atoms: _493  and  _494
REMARK  201  A    between atoms: _493  and  _496
REMARK  202  A    between atoms: _496  and  _497
REMARK  203  A    between atoms: _497  and  _498
REMARK  204  A    between atoms: _498  and  _499
REMARK  205  A    between atoms: _499  and  _500
REMARK  206  A    between atoms: _505  and  _506
REMARK                            x       y       z     vdW  Elec       q    Type
REMARK                         _______ _______ _______ _____ _____    ______ ____
ROOT
ATOM      1  O   HOH     1      56.978  28.861  19.178  0.00  0.00    +0.000 OA
ENDROOT
TORSDOF 0
REMARK  Name = ../refined-set-2016/1tjp/1tjp_pocket.pdb
REMARK  206 active torsions:
REMARK  status: ('A' for Active; 'I' for Inactive)
REMARK    1  A    between atoms: _1  and  _3
REMARK    2  A    between atoms: _3  and  _4
REMARK    3  A    between atoms: _3  and  _6
REMARK    4  A    between atoms: _10  and  _11
REMARK    5  A    between atoms: _16  and  _18
REMARK    6  A    between atoms: _18  and  _19
REMARK    7  A    between atoms: _18  and  _21
REMARK    8  A    between atoms: _21  and  _22
REMARK    9  A    between atoms: _28  and  _30
REMARK   10  A    between atoms: _30  and  _31
REMARK   11  A    between atoms: _30  and  _33
REMARK   12  A    between atoms: _36  and  _38
REMARK   13  A    between atoms: _38  and  _39
REMARK   14  A    between atoms: _38  and  _41
REMARK   15  A    between atoms: _41  and  _42
REMARK   16  A    between atoms: _45  and  _47
REMARK   17  A    between atoms: _47  and  _48
REMARK   18  A    between atoms: _47  and  _50
REMARK   19  A    between atoms: _50  and  _51
REMARK   20  A    between atoms: _51  and  _52
REMARK   21  A    between atoms: _55  and  _57
REMARK   22  A    between atoms: _57  and  _58
REMARK   23  A    between atoms: _57  and  _60
REMARK   24  A    between atoms: _60  and  _61
REMARK   25  A    between atoms: _64  and  _66
REMARK   26  A    between atoms: _66  and  _67
REMARK   27  A    between atoms: _70  and  _71
REMARK   28  A    between atoms: _76  and  _78
REMARK   29  A    between atoms: _78  and  _79
REMARK   30  A    between atoms: _78  and  _81
REMARK   31  A    between atoms: _81  and  _82
REMARK   32  A    between atoms: _85  and  _87
REMARK   33  A    between atoms: _87  and  _88
REMARK   34  A    between atoms: _91  and  _93
REMARK   35  A    between atoms: _93  and  _94
REMARK   36  A    between atoms: _93  and  _96
REMARK   37  A    between atoms: _96  and  _97
REMARK   38  A    between atoms: _100  and  _102
REMARK   39  A    between atoms: _102  and  _103
REMARK   40  A    between atoms: _105  and  _107
REMARK   41  A    between atoms: _107  and  _108
REMARK   42  A    between atoms: _107  and  _110
REMARK   43  A    between atoms: _110  and  _111
REMARK   44  A    between atoms: _114  and  _116
REMARK   45  A    between atoms: _116  and  _117
REMARK   46  A    between atoms: _116  and  _119
REMARK   47  A    between atoms: _119  and  _120
REMARK   48  A    between atoms: _123  and  _125
REMARK   49  A    between atoms: _125  and  _126
REMARK   50  A    between atoms: _125  and  _128
REMARK   51  A    between atoms: _128  and  _129
REMARK   52  A    between atoms: _129  and  _130
REMARK   53  A    between atoms: _135  and  _137
REMARK   54  A    between atoms: _137  and  _138
REMARK   55  A    between atoms: _137  and  _140
REMARK   56  A    between atoms: _140  and  _141
REMARK   57  A    between atoms: _146  and  _148
REMARK   58  A    between atoms: _148  and  _149
REMARK   59  A    between atoms: _148  and  _151
REMARK   60  A    between atoms: _151  and  _152
REMARK   61  A    between atoms: _155  and  _157
REMARK   62  A    between atoms: _157  and  _158
REMARK   63  A    between atoms: _157  and  _160
REMARK   64  A    between atoms: _160  and  _161
REMARK   65  A    between atoms: _164  and  _166
REMARK   66  A    between atoms: _166  and  _167
REMARK   67  A    between atoms: _166  and  _169
REMARK   68  A    between atoms: _169  and  _170
REMARK   69  A    between atoms: _170  and  _171
REMARK   70  A    between atoms: _173  and  _175
REMARK   71  A    between atoms: _175  and  _176
REMARK   72  A    between atoms: _175  and  _178
REMARK   73  A    between atoms: _178  and  _179
REMARK   74  A    between atoms: _184  and  _185
REMARK   75  A    between atoms: _187  and  _189
REMARK   76  A    between atoms: _189  and  _190
REMARK   77  A    between atoms: _189  and  _192
REMARK   78  A    between atoms: _192  and  _193
REMARK   79  A    between atoms: _196  and  _198
REMARK   80  A    between atoms: _198  and  _199
REMARK   81  A    between atoms: _198  and  _201
REMARK   82  A    between atoms: _204  and  _206
REMARK   83  A    between atoms: _206  and  _207
REMARK   84  A    between atoms: _210  and  _212
REMARK   85  A    between atoms: _212  and  _213
REMARK   86  A    between atoms: _212  and  _215
REMARK   87  A    between atoms: _215  and  _216
REMARK   88  A    between atoms: _219  and  _221
REMARK   89  A    between atoms: _221  and  _222
REMARK   90  A    between atoms: _221  and  _224
REMARK   91  A    between atoms: _224  and  _225
REMARK   92  A    between atoms: _228  and  _230
REMARK   93  A    between atoms: _230  and  _231
REMARK   94  A    between atoms: _230  and  _233
REMARK   95  A    between atoms: _233  and  _234
REMARK   96  A    between atoms: _239  and  _240
REMARK   97  A    between atoms: _242  and  _244
REMARK   98  A    between atoms: _244  and  _245
REMARK   99  A    between atoms: _244  and  _247
REMARK  100  A    between atoms: _247  and  _248
REMARK  101  A    between atoms: _253  and  _254
REMARK  102  A    between atoms: _256  and  _258
REMARK  103  A    between atoms: _258  and  _259
REMARK  104  A    between atoms: _258  and  _261
REMARK  105  A    between atoms: _261  and  _262
REMARK  106  A    between atoms: _265  and  _267
REMARK  107  A    between atoms: _267  and  _268
REMARK  108  A    between atoms: _267  and  _270
REMARK  109  A    between atoms: _270  and  _271
REMARK  110  A    between atoms: _273  and  _275
REMARK  111  A    between atoms: _275  and  _276
REMARK  112  A    between atoms: _275  and  _278
REMARK  113  A    between atoms: _278  and  _279
REMARK  114  A    between atoms: _279  and  _280
REMARK  115  A    between atoms: _280  and  _281
REMARK  116  A    between atoms: _290  and  _292
REMARK  117  A    between atoms: _292  and  _293
REMARK  118  A    between atoms: _295  and  _297
REMARK  119  A    between atoms: _297  and  _298
REMARK  120  A    between atoms: _297  and  _300
REMARK  121  A    between atoms: _303  and  _305
REMARK  122  A    between atoms: _305  and  _306
REMARK  123  A    between atoms: _305  and  _308
REMARK  124  A    between atoms: _308  and  _309
REMARK  125  A    between atoms: _312  and  _314
REMARK  126  A    between atoms: _314  and  _315
REMARK  127  A    between atoms: _317  and  _319
REMARK  128  A    between atoms: _319  and  _320
REMARK  129  A    between atoms: _323  and  _325
REMARK  130  A    between atoms: _325  and  _326
REMARK  131  A    between atoms: _325  and  _328
REMARK  132  A    between atoms: _328  and  _329
REMARK  133  A    between atoms: _329  and  _330
REMARK  134  A    between atoms: _333  and  _335
REMARK  135  A    between atoms: _335  and  _336
REMARK  136  A    between atoms: _335  and  _338
REMARK  137  A    between atoms: _338  and  _339
REMARK  138  A    between atoms: _344  and  _346
REMARK  139  A    between atoms: _346  and  _347
REMARK  140  A    between atoms: _346  and  _349
REMARK  141  A    between atoms: _349  and  _350
REMARK  142  A    between atoms: _350  and  _351
REMARK  143  A    between atoms: _351  and  _352
REMARK  144  A    between atoms: _361  and  _363
REMARK  145  A    between atoms: _363  and  _364
REMARK  146  A    between atoms: _366  and  _368
REMARK  147  A    between atoms: _368  and  _369
REMARK  148  A    between atoms: _368  and  _371
REMARK  149  A    between atoms: _371  and  _372
REMARK  150  A    between atoms: _375  and  _377
REMARK  151  A    between atoms: _377  and  _378
REMARK  152  A    between atoms: _377  and  _380
REMARK  153  A    between atoms: _380  and  _381
REMARK  154  A    between atoms: _381  and  _382
REMARK  155  A    between atoms: _387  and  _389
REMARK  156  A    between atoms: _389  and  _390
REMARK  157  A    between atoms: _392  and  _394
REMARK  158  A    between atoms: _394  and  _395
REMARK  159  A    between atoms: _394  and  _397
REMARK  160  A    between atoms: _397  and  _398
REMARK  161  A    between atoms: _404  and  _406
REMARK  162  A    between atoms: _406  and  _407
REMARK  163  A    between atoms: _409  and  _411
REMARK  164  A    between atoms: _411  and  _412
REMARK  165  A    between atoms: _411  and  _414
REMARK  166  A    between atoms: _414  and  _415
REMARK  167  A    between atoms: _418  and  _420
REMARK  168  A    between atoms: _420  and  _421
REMARK  169  A    between atoms: _420  and  _423
REMARK  170  A    between atoms: _423  and  _424
REMARK  171  A    between atoms: _426  and  _428
REMARK  172  A    between atoms: _428  and  _429
REMARK  173  A    between atoms: _428  and  _431
REMARK  174  A    between atoms: _431  and  _432
REMARK  175  A    between atoms: _432  and  _433
REMARK  176  A    between atoms: _438  and  _440
REMARK  177  A    between atoms: _440  and  _441
REMARK  178  A    between atoms: _440  and  _443
REMARK  179  A    between atoms: _443  and  _444
REMARK  180  A    between atoms: _447  and  _449
REMARK  181  A    between atoms: _449  and  _450
REMARK  182  A    between atoms: _449  and  _452
REMARK  183  A    between atoms: _452  and  _453
REMARK  184  A    between atoms: _455  and  _457
REMARK  185  A    between atoms: _457  and  _458
REMARK  186  A    between atoms: _460  and  _462
REMARK  187  A    between atoms: _462  and  _463
REMARK  188  A    between atoms: _462  and  _465
REMARK  189  A    between atoms: _465  and  _466
REMARK  190  A    between atoms: _468  and  _470
REMARK  191  A    between atoms: _470  and  _471
REMARK  192  A    between atoms: _474  and  _476
REMARK  193  A    between atoms: _476  and  _477
REMARK  194  A    between atoms: _476  and  _479
REMARK  195  A    between atoms: _479  and  _480
REMARK  196  A    between atoms: _483  and  _485
REMARK  197  A    between atoms: _485  and  _486
REMARK  198  A    between atoms: _485  and  _488
REMARK  199  A    between atoms: _491  and  _493
REMARK  200  A    between atoms: _493  and  _494
REMARK  201  A    between atoms: _493  and  _496
REMARK  202  A    between atoms: _496  and  _497
REMARK  203  A    between atoms: _497  and  _498
REMARK  204  A    between atoms: _498  and  _499
REMARK  205  A    between atoms: _499  and  _500
REMARK  206  A    between atoms: _505  and  _506
REMARK                            x       y       z     vdW  Elec       q    Type
REMARK                         _______ _______ _______ _____ _____    ______ ____
ROOT
ATOM      1  O   HOH     1      54.182  20.919  10.512  0.00  0.00    +0.000 OA
ENDROOT
TORSDOF 0
REMARK  Name = ../refined-set-2016/1tjp/1tjp_pocket.pdb
REMARK  206 active torsions:
REMARK  status: ('A' for Active; 'I' for Inactive)
REMARK    1  A    between atoms: _1  and  _3
REMARK    2  A    between atoms: _3  and  _4
REMARK    3  A    between atoms: _3  and  _6
REMARK    4  A    between atoms: _10  and  _11
REMARK    5  A    between atoms: _16  and  _18
REMARK    6  A    between atoms: _18  and  _19
REMARK    7  A    between atoms: _18  and  _21
REMARK    8  A    between atoms: _21  and  _22
REMARK    9  A    between atoms: _28  and  _30
REMARK   10  A    between atoms: _30  and  _31
REMARK   11  A    between atoms: _30  and  _33
REMARK   12  A    between atoms: _36  and  _38
REMARK   13  A    between atoms: _38  and  _39
REMARK   14  A    between atoms: _38  and  _41
REMARK   15  A    between atoms: _41  and  _42
REMARK   16  A    between atoms: _45  and  _47
REMARK   17  A    between atoms: _47  and  _48
REMARK   18  A    between atoms: _47  and  _50
REMARK   19  A    between atoms: _50  and  _51
REMARK   20  A    between atoms: _51  and  _52
REMARK   21  A    between atoms: _55  and  _57
REMARK   22  A    between atoms: _57  and  _58
REMARK   23  A    between atoms: _57  and  _60
REMARK   24  A    between atoms: _60  and  _61
REMARK   25  A    between atoms: _64  and  _66
REMARK   26  A    between atoms: _66  and  _67
REMARK   27  A    between atoms: _70  and  _71
REMARK   28  A    between atoms: _76  and  _78
REMARK   29  A    between atoms: _78  and  _79
REMARK   30  A    between atoms: _78  and  _81
REMARK   31  A    between atoms: _81  and  _82
REMARK   32  A    between atoms: _85  and  _87
REMARK   33  A    between atoms: _87  and  _88
REMARK   34  A    between atoms: _91  and  _93
REMARK   35  A    between atoms: _93  and  _94
REMARK   36  A    between atoms: _93  and  _96
REMARK   37  A    between atoms: _96  and  _97
REMARK   38  A    between atoms: _100  and  _102
REMARK   39  A    between atoms: _102  and  _103
REMARK   40  A    between atoms: _105  and  _107
REMARK   41  A    between atoms: _107  and  _108
REMARK   42  A    between atoms: _107  and  _110
REMARK   43  A    between atoms: _110  and  _111
REMARK   44  A    between atoms: _114  and  _116
REMARK   45  A    between atoms: _116  and  _117
REMARK   46  A    between atoms: _116  and  _119
REMARK   47  A    between atoms: _119  and  _120
REMARK   48  A    between atoms: _123  and  _125
REMARK   49  A    between atoms: _125  and  _126
REMARK   50  A    between atoms: _125  and  _128
REMARK   51  A    between atoms: _128  and  _129
REMARK   52  A    between atoms: _129  and  _130
REMARK   53  A    between atoms: _135  and  _137
REMARK   54  A    between atoms: _137  and  _138
REMARK   55  A    between atoms: _137  and  _140
REMARK   56  A    between atoms: _140  and  _141
REMARK   57  A    between atoms: _146  and  _148
REMARK   58  A    between atoms: _148  and  _149
REMARK   59  A    between atoms: _148  and  _151
REMARK   60  A    between atoms: _151  and  _152
REMARK   61  A    between atoms: _155  and  _157
REMARK   62  A    between atoms: _157  and  _158
REMARK   63  A    between atoms: _157  and  _160
REMARK   64  A    between atoms: _160  and  _161
REMARK   65  A    between atoms: _164  and  _166
REMARK   66  A    between atoms: _166  and  _167
REMARK   67  A    between atoms: _166  and  _169
REMARK   68  A    between atoms: _169  and  _170
REMARK   69  A    between atoms: _170  and  _171
REMARK   70  A    between atoms: _173  and  _175
REMARK   71  A    between atoms: _175  and  _176
REMARK   72  A    between atoms: _175  and  _178
REMARK   73  A    between atoms: _178  and  _179
REMARK   74  A    between atoms: _184  and  _185
REMARK   75  A    between atoms: _187  and  _189
REMARK   76  A    between atoms: _189  and  _190
REMARK   77  A    between atoms: _189  and  _192
REMARK   78  A    between atoms: _192  and  _193
REMARK   79  A    between atoms: _196  and  _198
REMARK   80  A    between atoms: _198  and  _199
REMARK   81  A    between atoms: _198  and  _201
REMARK   82  A    between atoms: _204  and  _206
REMARK   83  A    between atoms: _206  and  _207
REMARK   84  A    between atoms: _210  and  _212
REMARK   85  A    between atoms: _212  and  _213
REMARK   86  A    between atoms: _212  and  _215
REMARK   87  A    between atoms: _215  and  _216
REMARK   88  A    between atoms: _219  and  _221
REMARK   89  A    between atoms: _221  and  _222
REMARK   90  A    between atoms: _221  and  _224
REMARK   91  A    between atoms: _224  and  _225
REMARK   92  A    between atoms: _228  and  _230
REMARK   93  A    between atoms: _230  and  _231
REMARK   94  A    between atoms: _230  and  _233
REMARK   95  A    between atoms: _233  and  _234
REMARK   96  A    between atoms: _239  and  _240
REMARK   97  A    between atoms: _242  and  _244
REMARK   98  A    between atoms: _244  and  _245
REMARK   99  A    between atoms: _244  and  _247
REMARK  100  A    between atoms: _247  and  _248
REMARK  101  A    between atoms: _253  and  _254
REMARK  102  A    between atoms: _256  and  _258
REMARK  103  A    between atoms: _258  and  _259
REMARK  104  A    between atoms: _258  and  _261
REMARK  105  A    between atoms: _261  and  _262
REMARK  106  A    between atoms: _265  and  _267
REMARK  107  A    between atoms: _267  and  _268
REMARK  108  A    between atoms: _267  and  _270
REMARK  109  A    between atoms: _270  and  _271
REMARK  110  A    between atoms: _273  and  _275
REMARK  111  A    between atoms: _275  and  _276
REMARK  112  A    between atoms: _275  and  _278
REMARK  113  A    between atoms: _278  and  _279
REMARK  114  A    between atoms: _279  and  _280
REMARK  115  A    between atoms: _280  and  _281
REMARK  116  A    between atoms: _290  and  _292
REMARK  117  A    between atoms: _292  and  _293
REMARK  118  A    between atoms: _295  and  _297
REMARK  119  A    between atoms: _297  and  _298
REMARK  120  A    between atoms: _297  and  _300
REMARK  121  A    between atoms: _303  and  _305
REMARK  122  A    between atoms: _305  and  _306
REMARK  123  A    between atoms: _305  and  _308
REMARK  124  A    between atoms: _308  and  _309
REMARK  125  A    between atoms: _312  and  _314
REMARK  126  A    between atoms: _314  and  _315
REMARK  127  A    between atoms: _317  and  _319
REMARK  128  A    between atoms: _319  and  _320
REMARK  129  A    between atoms: _323  and  _325
REMARK  130  A    between atoms: _325  and  _326
REMARK  131  A    between atoms: _325  and  _328
REMARK  132  A    between atoms: _328  and  _329
REMARK  133  A    between atoms: _329  and  _330
REMARK  134  A    between atoms: _333  and  _335
REMARK  135  A    between atoms: _335  and  _336
REMARK  136  A    between atoms: _335  and  _338
REMARK  137  A    between atoms: _338  and  _339
REMARK  138  A    between atoms: _344  and  _346
REMARK  139  A    between atoms: _346  and  _347
REMARK  140  A    between atoms: _346  and  _349
REMARK  141  A    between atoms: _349  and  _350
REMARK  142  A    between atoms: _350  and  _351
REMARK  143  A    between atoms: _351  and  _352
REMARK  144  A    between atoms: _361  and  _363
REMARK  145  A    between atoms: _363  and  _364
REMARK  146  A    between atoms: _366  and  _368
REMARK  147  A    between atoms: _368  and  _369
REMARK  148  A    between atoms: _368  and  _371
REMARK  149  A    between atoms: _371  and  _372
REMARK  150  A    between atoms: _375  and  _377
REMARK  151  A    between atoms: _377  and  _378
REMARK  152  A    between atoms: _377  and  _380
REMARK  153  A    between atoms: _380  and  _381
REMARK  154  A    between atoms: _381  and  _382
REMARK  155  A    between atoms: _387  and  _389
REMARK  156  A    between atoms: _389  and  _390
REMARK  157  A    between atoms: _392  and  _394
REMARK  158  A    between atoms: _394  and  _395
REMARK  159  A    between atoms: _394  and  _397
REMARK  160  A    between atoms: _397  and  _398
REMARK  161  A    between atoms: _404  and  _406
REMARK  162  A    between atoms: _406  and  _407
REMARK  163  A    between atoms: _409  and  _411
REMARK  164  A    between atoms: _411  and  _412
REMARK  165  A    between atoms: _411  and  _414
REMARK  166  A    between atoms: _414  and  _415
REMARK  167  A    between atoms: _418  and  _420
REMARK  168  A    between atoms: _420  and  _421
REMARK  169  A    between atoms: _420  and  _423
REMARK  170  A    between atoms: _423  and  _424
REMARK  171  A    between atoms: _426  and  _428
REMARK  172  A    between atoms: _428  and  _429
REMARK  173  A    between atoms: _428  and  _431
REMARK  174  A    between atoms: _431  and  _432
REMARK  175  A    between atoms: _432  and  _433
REMARK  176  A    between atoms: _438  and  _440
REMARK  177  A    between atoms: _440  and  _441
REMARK  178  A    between atoms: _440  and  _443
REMARK  179  A    between atoms: _443  and  _444
REMARK  180  A    between atoms: _447  and  _449
REMARK  181  A    between atoms: _449  and  _450
REMARK  182  A    between atoms: _449  and  _452
REMARK  183  A    between atoms: _452  and  _453
REMARK  184  A    between atoms: _455  and  _457
REMARK  185  A    between atoms: _457  and  _458
REMARK  186  A    between atoms: _460  and  _462
REMARK  187  A    between atoms: _462  and  _463
REMARK  188  A    between atoms: _462  and  _465
REMARK  189  A    between atoms: _465  and  _466
REMARK  190  A    between atoms: _468  and  _470
REMARK  191  A    between atoms: _470  and  _471
REMARK  192  A    between atoms: _474  and  _476
REMARK  193  A    between atoms: _476  and  _477
REMARK  194  A    between atoms: _476  and  _479
REMARK  195  A    between atoms: _479  and  _480
REMARK  196  A    between atoms: _483  and  _485
REMARK  197  A    between atoms: _485  and  _486
REMARK  198  A    between atoms: _485  and  _488
REMARK  199  A    between atoms: _491  and  _493
REMARK  200  A    between atoms: _493  and  _494
REMARK  201  A    between atoms: _493  and  _496
REMARK  202  A    between atoms: _496  and  _497
REMARK  203  A    between atoms: _497  and  _498
REMARK  204  A    between atoms: _498  and  _499
REMARK  205  A    between atoms: _499  and  _500
REMARK  206  A    between atoms: _505  and  _506
REMARK                            x       y       z     vdW  Elec       q    Type
REMARK                         _______ _______ _______ _____ _____    ______ ____
ROOT
ATOM      1  O   HOH     1      54.789  31.376  18.640  0.00  0.00    +0.000 OA
ENDROOT
TORSDOF 0
REMARK  Name = ../refined-set-2016/1tjp/1tjp_pocket.pdb
REMARK  206 active torsions:
REMARK  status: ('A' for Active; 'I' for Inactive)
REMARK    1  A    between atoms: _1  and  _3
REMARK    2  A    between atoms: _3  and  _4
REMARK    3  A    between atoms: _3  and  _6
REMARK    4  A    between atoms: _10  and  _11
REMARK    5  A    between atoms: _16  and  _18
REMARK    6  A    between atoms: _18  and  _19
REMARK    7  A    between atoms: _18  and  _21
REMARK    8  A    between atoms: _21  and  _22
REMARK    9  A    between atoms: _28  and  _30
REMARK   10  A    between atoms: _30  and  _31
REMARK   11  A    between atoms: _30  and  _33
REMARK   12  A    between atoms: _36  and  _38
REMARK   13  A    between atoms: _38  and  _39
REMARK   14  A    between atoms: _38  and  _41
REMARK   15  A    between atoms: _41  and  _42
REMARK   16  A    between atoms: _45  and  _47
REMARK   17  A    between atoms: _47  and  _48
REMARK   18  A    between atoms: _47  and  _50
REMARK   19  A    between atoms: _50  and  _51
REMARK   20  A    between atoms: _51  and  _52
REMARK   21  A    between atoms: _55  and  _57
REMARK   22  A    between atoms: _57  and  _58
REMARK   23  A    between atoms: _57  and  _60
REMARK   24  A    between atoms: _60  and  _61
REMARK   25  A    between atoms: _64  and  _66
REMARK   26  A    between atoms: _66  and  _67
REMARK   27  A    between atoms: _70  and  _71
REMARK   28  A    between atoms: _76  and  _78
REMARK   29  A    between atoms: _78  and  _79
REMARK   30  A    between atoms: _78  and  _81
REMARK   31  A    between atoms: _81  and  _82
REMARK   32  A    between atoms: _85  and  _87
REMARK   33  A    between atoms: _87  and  _88
REMARK   34  A    between atoms: _91  and  _93
REMARK   35  A    between atoms: _93  and  _94
REMARK   36  A    between atoms: _93  and  _96
REMARK   37  A    between atoms: _96  and  _97
REMARK   38  A    between atoms: _100  and  _102
REMARK   39  A    between atoms: _102  and  _103
REMARK   40  A    between atoms: _105  and  _107
REMARK   41  A    between atoms: _107  and  _108
REMARK   42  A    between atoms: _107  and  _110
REMARK   43  A    between atoms: _110  and  _111
REMARK   44  A    between atoms: _114  and  _116
REMARK   45  A    between atoms: _116  and  _117
REMARK   46  A    between atoms: _116  and  _119
REMARK   47  A    between atoms: _119  and  _120
REMARK   48  A    between atoms: _123  and  _125
REMARK   49  A    between atoms: _125  and  _126
REMARK   50  A    between atoms: _125  and  _128
REMARK   51  A    between atoms: _128  and  _129
REMARK   52  A    between atoms: _129  and  _130
REMARK   53  A    between atoms: _135  and  _137
REMARK   54  A    between atoms: _137  and  _138
REMARK   55  A    between atoms: _137  and  _140
REMARK   56  A    between atoms: _140  and  _141
REMARK   57  A    between atoms: _146  and  _148
REMARK   58  A    between atoms: _148  and  _149
REMARK   59  A    between atoms: _148  and  _151
REMARK   60  A    between atoms: _151  and  _152
REMARK   61  A    between atoms: _155  and  _157
REMARK   62  A    between atoms: _157  and  _158
REMARK   63  A    between atoms: _157  and  _160
REMARK   64  A    between atoms: _160  and  _161
REMARK   65  A    between atoms: _164  and  _166
REMARK   66  A    between atoms: _166  and  _167
REMARK   67  A    between atoms: _166  and  _169
REMARK   68  A    between atoms: _169  and  _170
REMARK   69  A    between atoms: _170  and  _171
REMARK   70  A    between atoms: _173  and  _175
REMARK   71  A    between atoms: _175  and  _176
REMARK   72  A    between atoms: _175  and  _178
REMARK   73  A    between atoms: _178  and  _179
REMARK   74  A    between atoms: _184  and  _185
REMARK   75  A    between atoms: _187  and  _189
REMARK   76  A    between atoms: _189  and  _190
REMARK   77  A    between atoms: _189  and  _192
REMARK   78  A    between atoms: _192  and  _193
REMARK   79  A    between atoms: _196  and  _198
REMARK   80  A    between atoms: _198  and  _199
REMARK   81  A    between atoms: _198  and  _201
REMARK   82  A    between atoms: _204  and  _206
REMARK   83  A    between atoms: _206  and  _207
REMARK   84  A    between atoms: _210  and  _212
REMARK   85  A    between atoms: _212  and  _213
REMARK   86  A    between atoms: _212  and  _215
REMARK   87  A    between atoms: _215  and  _216
REMARK   88  A    between atoms: _219  and  _221
REMARK   89  A    between atoms: _221  and  _222
REMARK   90  A    between atoms: _221  and  _224
REMARK   91  A    between atoms: _224  and  _225
REMARK   92  A    between atoms: _228  and  _230
REMARK   93  A    between atoms: _230  and  _231
REMARK   94  A    between atoms: _230  and  _233
REMARK   95  A    between atoms: _233  and  _234
REMARK   96  A    between atoms: _239  and  _240
REMARK   97  A    between atoms: _242  and  _244
REMARK   98  A    between atoms: _244  and  _245
REMARK   99  A    between atoms: _244  and  _247
REMARK  100  A    between atoms: _247  and  _248
REMARK  101  A    between atoms: _253  and  _254
REMARK  102  A    between atoms: _256  and  _258
REMARK  103  A    between atoms: _258  and  _259
REMARK  104  A    between atoms: _258  and  _261
REMARK  105  A    between atoms: _261  and  _262
REMARK  106  A    between atoms: _265  and  _267
REMARK  107  A    between atoms: _267  and  _268
REMARK  108  A    between atoms: _267  and  _270
REMARK  109  A    between atoms: _270  and  _271
REMARK  110  A    between atoms: _273  and  _275
REMARK  111  A    between atoms: _275  and  _276
REMARK  112  A    between atoms: _275  and  _278
REMARK  113  A    between atoms: _278  and  _279
REMARK  114  A    between atoms: _279  and  _280
REMARK  115  A    between atoms: _280  and  _281
REMARK  116  A    between atoms: _290  and  _292
REMARK  117  A    between atoms: _292  and  _293
REMARK  118  A    between atoms: _295  and  _297
REMARK  119  A    between atoms: _297  and  _298
REMARK  120  A    between atoms: _297  and  _300
REMARK  121  A    between atoms: _303  and  _305
REMARK  122  A    between atoms: _305  and  _306
REMARK  123  A    between atoms: _305  and  _308
REMARK  124  A    between atoms: _308  and  _309
REMARK  125  A    between atoms: _312  and  _314
REMARK  126  A    between atoms: _314  and  _315
REMARK  127  A    between atoms: _317  and  _319
REMARK  128  A    between atoms: _319  and  _320
REMARK  129  A    between atoms: _323  and  _325
REMARK  130  A    between atoms: _325  and  _326
REMARK  131  A    between atoms: _325  and  _328
REMARK  132  A    between atoms: _328  and  _329
REMARK  133  A    between atoms: _329  and  _330
REMARK  134  A    between atoms: _333  and  _335
REMARK  135  A    between atoms: _335  and  _336
REMARK  136  A    between atoms: _335  and  _338
REMARK  137  A    between atoms: _338  and  _339
REMARK  138  A    between atoms: _344  and  _346
REMARK  139  A    between atoms: _346  and  _347
REMARK  140  A    between atoms: _346  and  _349
REMARK  141  A    between atoms: _349  and  _350
REMARK  142  A    between atoms: _350  and  _351
REMARK  143  A    between atoms: _351  and  _352
REMARK  144  A    between atoms: _361  and  _363
REMARK  145  A    between atoms: _363  and  _364
REMARK  146  A    between atoms: _366  and  _368
REMARK  147  A    between atoms: _368  and  _369
REMARK  148  A    between atoms: _368  and  _371
REMARK  149  A    between atoms: _371  and  _372
REMARK  150  A    between atoms: _375  and  _377
REMARK  151  A    between atoms: _377  and  _378
REMARK  152  A    between atoms: _377  and  _380
REMARK  153  A    between atoms: _380  and  _381
REMARK  154  A    between atoms: _381  and  _382
REMARK  155  A    between atoms: _387  and  _389
REMARK  156  A    between atoms: _389  and  _390
REMARK  157  A    between atoms: _392  and  _394
REMARK  158  A    between atoms: _394  and  _395
REMARK  159  A    between atoms: _394  and  _397
REMARK  160  A    between atoms: _397  and  _398
REMARK  161  A    between atoms: _404  and  _406
REMARK  162  A    between atoms: _406  and  _407
REMARK  163  A    between atoms: _409  and  _411
REMARK  164  A    between atoms: _411  and  _412
REMARK  165  A    between atoms: _411  and  _414
REMARK  166  A    between atoms: _414  and  _415
REMARK  167  A    between atoms: _418  and  _420
REMARK  168  A    between atoms: _420  and  _421
REMARK  169  A    between atoms: _420  and  _423
REMARK  170  A    between atoms: _423  and  _424
REMARK  171  A    between atoms: _426  and  _428
REMARK  172  A    between atoms: _428  and  _429
REMARK  173  A    between atoms: _428  and  _431
REMARK  174  A    between atoms: _431  and  _432
REMARK  175  A    between atoms: _432  and  _433
REMARK  176  A    between atoms: _438  and  _440
REMARK  177  A    between atoms: _440  and  _441
REMARK  178  A    between atoms: _440  and  _443
REMARK  179  A    between atoms: _443  and  _444
REMARK  180  A    between atoms: _447  and  _449
REMARK  181  A    between atoms: _449  and  _450
REMARK  182  A    between atoms: _449  and  _452
REMARK  183  A    between atoms: _452  and  _453
REMARK  184  A    between atoms: _455  and  _457
REMARK  185  A    between atoms: _457  and  _458
REMARK  186  A    between atoms: _460  and  _462
REMARK  187  A    between atoms: _462  and  _463
REMARK  188  A    between atoms: _462  and  _465
REMARK  189  A    between atoms: _465  and  _466
REMARK  190  A    between atoms: _468  and  _470
REMARK  191  A    between atoms: _470  and  _471
REMARK  192  A    between atoms: _474  and  _476
REMARK  193  A    between atoms: _476  and  _477
REMARK  194  A    between atoms: _476  and  _479
REMARK  195  A    between atoms: _479  and  _480
REMARK  196  A    between atoms: _483  and  _485
REMARK  197  A    between atoms: _485  and  _486
REMARK  198  A    between atoms: _485  and  _488
REMARK  199  A    between atoms: _491  and  _493
REMARK  200  A    between atoms: _493  and  _494
REMARK  201  A    between atoms: _493  and  _496
REMARK  202  A    between atoms: _496  and  _497
REMARK  203  A    between atoms: _497  and  _498
REMARK  204  A    between atoms: _498  and  _499
REMARK  205  A    between atoms: _499  and  _500
REMARK  206  A    between atoms: _505  and  _506
REMARK                            x       y       z     vdW  Elec       q    Type
REMARK                         _______ _______ _______ _____ _____    ______ ____
ROOT
ATOM      1  O   HOH     1      51.713  19.833  11.190  0.00  0.00    +0.000 OA
ENDROOT
TORSDOF 0
REMARK  Name = ../refined-set-2016/1tjp/1tjp_pocket.pdb
REMARK  206 active torsions:
REMARK  status: ('A' for Active; 'I' for Inactive)
REMARK    1  A    between atoms: _1  and  _3
REMARK    2  A    between atoms: _3  and  _4
REMARK    3  A    between atoms: _3  and  _6
REMARK    4  A    between atoms: _10  and  _11
REMARK    5  A    between atoms: _16  and  _18
REMARK    6  A    between atoms: _18  and  _19
REMARK    7  A    between atoms: _18  and  _21
REMARK    8  A    between atoms: _21  and  _22
REMARK    9  A    between atoms: _28  and  _30
REMARK   10  A    between atoms: _30  and  _31
REMARK   11  A    between atoms: _30  and  _33
REMARK   12  A    between atoms: _36  and  _38
REMARK   13  A    between atoms: _38  and  _39
REMARK   14  A    between atoms: _38  and  _41
REMARK   15  A    between atoms: _41  and  _42
REMARK   16  A    between atoms: _45  and  _47
REMARK   17  A    between atoms: _47  and  _48
REMARK   18  A    between atoms: _47  and  _50
REMARK   19  A    between atoms: _50  and  _51
REMARK   20  A    between atoms: _51  and  _52
REMARK   21  A    between atoms: _55  and  _57
REMARK   22  A    between atoms: _57  and  _58
REMARK   23  A    between atoms: _57  and  _60
REMARK   24  A    between atoms: _60  and  _61
REMARK   25  A    between atoms: _64  and  _66
REMARK   26  A    between atoms: _66  and  _67
REMARK   27  A    between atoms: _70  and  _71
REMARK   28  A    between atoms: _76  and  _78
REMARK   29  A    between atoms: _78  and  _79
REMARK   30  A    between atoms: _78  and  _81
REMARK   31  A    between atoms: _81  and  _82
REMARK   32  A    between atoms: _85  and  _87
REMARK   33  A    between atoms: _87  and  _88
REMARK   34  A    between atoms: _91  and  _93
REMARK   35  A    between atoms: _93  and  _94
REMARK   36  A    between atoms: _93  and  _96
REMARK   37  A    between atoms: _96  and  _97
REMARK   38  A    between atoms: _100  and  _102
REMARK   39  A    between atoms: _102  and  _103
REMARK   40  A    between atoms: _105  and  _107
REMARK   41  A    between atoms: _107  and  _108
REMARK   42  A    between atoms: _107  and  _110
REMARK   43  A    between atoms: _110  and  _111
REMARK   44  A    between atoms: _114  and  _116
REMARK   45  A    between atoms: _116  and  _117
REMARK   46  A    between atoms: _116  and  _119
REMARK   47  A    between atoms: _119  and  _120
REMARK   48  A    between atoms: _123  and  _125
REMARK   49  A    between atoms: _125  and  _126
REMARK   50  A    between atoms: _125  and  _128
REMARK   51  A    between atoms: _128  and  _129
REMARK   52  A    between atoms: _129  and  _130
REMARK   53  A    between atoms: _135  and  _137
REMARK   54  A    between atoms: _137  and  _138
REMARK   55  A    between atoms: _137  and  _140
REMARK   56  A    between atoms: _140  and  _141
REMARK   57  A    between atoms: _146  and  _148
REMARK   58  A    between atoms: _148  and  _149
REMARK   59  A    between atoms: _148  and  _151
REMARK   60  A    between atoms: _151  and  _152
REMARK   61  A    between atoms: _155  and  _157
REMARK   62  A    between atoms: _157  and  _158
REMARK   63  A    between atoms: _157  and  _160
REMARK   64  A    between atoms: _160  and  _161
REMARK   65  A    between atoms: _164  and  _166
REMARK   66  A    between atoms: _166  and  _167
REMARK   67  A    between atoms: _166  and  _169
REMARK   68  A    between atoms: _169  and  _170
REMARK   69  A    between atoms: _170  and  _171
REMARK   70  A    between atoms: _173  and  _175
REMARK   71  A    between atoms: _175  and  _176
REMARK   72  A    between atoms: _175  and  _178
REMARK   73  A    between atoms: _178  and  _179
REMARK   74  A    between atoms: _184  and  _185
REMARK   75  A    between atoms: _187  and  _189
REMARK   76  A    between atoms: _189  and  _190
REMARK   77  A    between atoms: _189  and  _192
REMARK   78  A    between atoms: _192  and  _193
REMARK   79  A    between atoms: _196  and  _198
REMARK   80  A    between atoms: _198  and  _199
REMARK   81  A    between atoms: _198  and  _201
REMARK   82  A    between atoms: _204  and  _206
REMARK   83  A    between atoms: _206  and  _207
REMARK   84  A    between atoms: _210  and  _212
REMARK   85  A    between atoms: _212  and  _213
REMARK   86  A    between atoms: _212  and  _215
REMARK   87  A    between atoms: _215  and  _216
REMARK   88  A    between atoms: _219  and  _221
REMARK   89  A    between atoms: _221  and  _222
REMARK   90  A    between atoms: _221  and  _224
REMARK   91  A    between atoms: _224  and  _225
REMARK   92  A    between atoms: _228  and  _230
REMARK   93  A    between atoms: _230  and  _231
REMARK   94  A    between atoms: _230  and  _233
REMARK   95  A    between atoms: _233  and  _234
REMARK   96  A    between atoms: _239  and  _240
REMARK   97  A    between atoms: _242  and  _244
REMARK   98  A    between atoms: _244  and  _245
REMARK   99  A    between atoms: _244  and  _247
REMARK  100  A    between atoms: _247  and  _248
REMARK  101  A    between atoms: _253  and  _254
REMARK  102  A    between atoms: _256  and  _258
REMARK  103  A    between atoms: _258  and  _259
REMARK  104  A    between atoms: _258  and  _261
REMARK  105  A    between atoms: _261  and  _262
REMARK  106  A    between atoms: _265  and  _267
REMARK  107  A    between atoms: _267  and  _268
REMARK  108  A    between atoms: _267  and  _270
REMARK  109  A    between atoms: _270  and  _271
REMARK  110  A    between atoms: _273  and  _275
REMARK  111  A    between atoms: _275  and  _276
REMARK  112  A    between atoms: _275  and  _278
REMARK  113  A    between atoms: _278  and  _279
REMARK  114  A    between atoms: _279  and  _280
REMARK  115  A    between atoms: _280  and  _281
REMARK  116  A    between atoms: _290  and  _292
REMARK  117  A    between atoms: _292  and  _293
REMARK  118  A    between atoms: _295  and  _297
REMARK  119  A    between atoms: _297  and  _298
REMARK  120  A    between atoms: _297  and  _300
REMARK  121  A    between atoms: _303  and  _305
REMARK  122  A    between atoms: _305  and  _306
REMARK  123  A    between atoms: _305  and  _308
REMARK  124  A    between atoms: _308  and  _309
REMARK  125  A    between atoms: _312  and  _314
REMARK  126  A    between atoms: _314  and  _315
REMARK  127  A    between atoms: _317  and  _319
REMARK  128  A    between atoms: _319  and  _320
REMARK  129  A    between atoms: _323  and  _325
REMARK  130  A    between atoms: _325  and  _326
REMARK  131  A    between atoms: _325  and  _328
REMARK  132  A    between atoms: _328  and  _329
REMARK  133  A    between atoms: _329  and  _330
REMARK  134  A    between atoms: _333  and  _335
REMARK  135  A    between atoms: _335  and  _336
REMARK  136  A    between atoms: _335  and  _338
REMARK  137  A    between atoms: _338  and  _339
REMARK  138  A    between atoms: _344  and  _346
REMARK  139  A    between atoms: _346  and  _347
REMARK  140  A    between atoms: _346  and  _349
REMARK  141  A    between atoms: _349  and  _350
REMARK  142  A    between atoms: _350  and  _351
REMARK  143  A    between atoms: _351  and  _352
REMARK  144  A    between atoms: _361  and  _363
REMARK  145  A    between atoms: _363  and  _364
REMARK  146  A    between atoms: _366  and  _368
REMARK  147  A    between atoms: _368  and  _369
REMARK  148  A    between atoms: _368  and  _371
REMARK  149  A    between atoms: _371  and  _372
REMARK  150  A    between atoms: _375  and  _377
REMARK  151  A    between atoms: _377  and  _378
REMARK  152  A    between atoms: _377  and  _380
REMARK  153  A    between atoms: _380  and  _381
REMARK  154  A    between atoms: _381  and  _382
REMARK  155  A    between atoms: _387  and  _389
REMARK  156  A    between atoms: _389  and  _390
REMARK  157  A    between atoms: _392  and  _394
REMARK  158  A    between atoms: _394  and  _395
REMARK  159  A    between atoms: _394  and  _397
REMARK  160  A    between atoms: _397  and  _398
REMARK  161  A    between atoms: _404  and  _406
REMARK  162  A    between atoms: _406  and  _407
REMARK  163  A    between atoms: _409  and  _411
REMARK  164  A    between atoms: _411  and  _412
REMARK  165  A    between atoms: _411  and  _414
REMARK  166  A    between atoms: _414  and  _415
REMARK  167  A    between atoms: _418  and  _420
REMARK  168  A    between atoms: _420  and  _421
REMARK  169  A    between atoms: _420  and  _423
REMARK  170  A    between atoms: _423  and  _424
REMARK  171  A    between atoms: _426  and  _428
REMARK  172  A    between atoms: _428  and  _429
REMARK  173  A    between atoms: _428  and  _431
REMARK  174  A    between atoms: _431  and  _432
REMARK  175  A    between atoms: _432  and  _433
REMARK  176  A    between atoms: _438  and  _440
REMARK  177  A    between atoms: _440  and  _441
REMARK  178  A    between atoms: _440  and  _443
REMARK  179  A    between atoms: _443  and  _444
REMARK  180  A    between atoms: _447  and  _449
REMARK  181  A    between atoms: _449  and  _450
REMARK  182  A    between atoms: _449  and  _452
REMARK  183  A    between atoms: _452  and  _453
REMARK  184  A    between atoms: _455  and  _457
REMARK  185  A    between atoms: _457  and  _458
REMARK  186  A    between atoms: _460  and  _462
REMARK  187  A    between atoms: _462  and  _463
REMARK  188  A    between atoms: _462  and  _465
REMARK  189  A    between atoms: _465  and  _466
REMARK  190  A    between atoms: _468  and  _470
REMARK  191  A    between atoms: _470  and  _471
REMARK  192  A    between atoms: _474  and  _476
REMARK  193  A    between atoms: _476  and  _477
REMARK  194  A    between atoms: _476  and  _479
REMARK  195  A    between atoms: _479  and  _480
REMARK  196  A    between atoms: _483  and  _485
REMARK  197  A    between atoms: _485  and  _486
REMARK  198  A    between atoms: _485  and  _488
REMARK  199  A    between atoms: _491  and  _493
REMARK  200  A    between atoms: _493  and  _494
REMARK  201  A    between atoms: _493  and  _496
REMARK  202  A    between atoms: _496  and  _497
REMARK  203  A    between atoms: _497  and  _498
REMARK  204  A    between atoms: _498  and  _499
REMARK  205  A    between atoms: _499  and  _500
REMARK  206  A    between atoms: _505  and  _506
REMARK                            x       y       z     vdW  Elec       q    Type
REMARK                         _______ _______ _______ _____ _____    ______ ____
ROOT
ATOM      1  O   HOH     1      52.095  33.406   5.897  0.00  0.00    +0.000 OA
ENDROOT
TORSDOF 0
REMARK  Name = ../refined-set-2016/1tjp/1tjp_pocket.pdb
REMARK  206 active torsions:
REMARK  status: ('A' for Active; 'I' for Inactive)
REMARK    1  A    between atoms: _1  and  _3
REMARK    2  A    between atoms: _3  and  _4
REMARK    3  A    between atoms: _3  and  _6
REMARK    4  A    between atoms: _10  and  _11
REMARK    5  A    between atoms: _16  and  _18
REMARK    6  A    between atoms: _18  and  _19
REMARK    7  A    between atoms: _18  and  _21
REMARK    8  A    between atoms: _21  and  _22
REMARK    9  A    between atoms: _28  and  _30
REMARK   10  A    between atoms: _30  and  _31
REMARK   11  A    between atoms: _30  and  _33
REMARK   12  A    between atoms: _36  and  _38
REMARK   13  A    between atoms: _38  and  _39
REMARK   14  A    between atoms: _38  and  _41
REMARK   15  A    between atoms: _41  and  _42
REMARK   16  A    between atoms: _45  and  _47
REMARK   17  A    between atoms: _47  and  _48
REMARK   18  A    between atoms: _47  and  _50
REMARK   19  A    between atoms: _50  and  _51
REMARK   20  A    between atoms: _51  and  _52
REMARK   21  A    between atoms: _55  and  _57
REMARK   22  A    between atoms: _57  and  _58
REMARK   23  A    between atoms: _57  and  _60
REMARK   24  A    between atoms: _60  and  _61
REMARK   25  A    between atoms: _64  and  _66
REMARK   26  A    between atoms: _66  and  _67
REMARK   27  A    between atoms: _70  and  _71
REMARK   28  A    between atoms: _76  and  _78
REMARK   29  A    between atoms: _78  and  _79
REMARK   30  A    between atoms: _78  and  _81
REMARK   31  A    between atoms: _81  and  _82
REMARK   32  A    between atoms: _85  and  _87
REMARK   33  A    between atoms: _87  and  _88
REMARK   34  A    between atoms: _91  and  _93
REMARK   35  A    between atoms: _93  and  _94
REMARK   36  A    between atoms: _93  and  _96
REMARK   37  A    between atoms: _96  and  _97
REMARK   38  A    between atoms: _100  and  _102
REMARK   39  A    between atoms: _102  and  _103
REMARK   40  A    between atoms: _105  and  _107
REMARK   41  A    between atoms: _107  and  _108
REMARK   42  A    between atoms: _107  and  _110
REMARK   43  A    between atoms: _110  and  _111
REMARK   44  A    between atoms: _114  and  _116
REMARK   45  A    between atoms: _116  and  _117
REMARK   46  A    between atoms: _116  and  _119
REMARK   47  A    between atoms: _119  and  _120
REMARK   48  A    between atoms: _123  and  _125
REMARK   49  A    between atoms: _125  and  _126
REMARK   50  A    between atoms: _125  and  _128
REMARK   51  A    between atoms: _128  and  _129
REMARK   52  A    between atoms: _129  and  _130
REMARK   53  A    between atoms: _135  and  _137
REMARK   54  A    between atoms: _137  and  _138
REMARK   55  A    between atoms: _137  and  _140
REMARK   56  A    between atoms: _140  and  _141
REMARK   57  A    between atoms: _146  and  _148
REMARK   58  A    between atoms: _148  and  _149
REMARK   59  A    between atoms: _148  and  _151
REMARK   60  A    between atoms: _151  and  _152
REMARK   61  A    between atoms: _155  and  _157
REMARK   62  A    between atoms: _157  and  _158
REMARK   63  A    between atoms: _157  and  _160
REMARK   64  A    between atoms: _160  and  _161
REMARK   65  A    between atoms: _164  and  _166
REMARK   66  A    between atoms: _166  and  _167
REMARK   67  A    between atoms: _166  and  _169
REMARK   68  A    between atoms: _169  and  _170
REMARK   69  A    between atoms: _170  and  _171
REMARK   70  A    between atoms: _173  and  _175
REMARK   71  A    between atoms: _175  and  _176
REMARK   72  A    between atoms: _175  and  _178
REMARK   73  A    between atoms: _178  and  _179
REMARK   74  A    between atoms: _184  and  _185
REMARK   75  A    between atoms: _187  and  _189
REMARK   76  A    between atoms: _189  and  _190
REMARK   77  A    between atoms: _189  and  _192
REMARK   78  A    between atoms: _192  and  _193
REMARK   79  A    between atoms: _196  and  _198
REMARK   80  A    between atoms: _198  and  _199
REMARK   81  A    between atoms: _198  and  _201
REMARK   82  A    between atoms: _204  and  _206
REMARK   83  A    between atoms: _206  and  _207
REMARK   84  A    between atoms: _210  and  _212
REMARK   85  A    between atoms: _212  and  _213
REMARK   86  A    between atoms: _212  and  _215
REMARK   87  A    between atoms: _215  and  _216
REMARK   88  A    between atoms: _219  and  _221
REMARK   89  A    between atoms: _221  and  _222
REMARK   90  A    between atoms: _221  and  _224
REMARK   91  A    between atoms: _224  and  _225
REMARK   92  A    between atoms: _228  and  _230
REMARK   93  A    between atoms: _230  and  _231
REMARK   94  A    between atoms: _230  and  _233
REMARK   95  A    between atoms: _233  and  _234
REMARK   96  A    between atoms: _239  and  _240
REMARK   97  A    between atoms: _242  and  _244
REMARK   98  A    between atoms: _244  and  _245
REMARK   99  A    between atoms: _244  and  _247
REMARK  100  A    between atoms: _247  and  _248
REMARK  101  A    between atoms: _253  and  _254
REMARK  102  A    between atoms: _256  and  _258
REMARK  103  A    between atoms: _258  and  _259
REMARK  104  A    between atoms: _258  and  _261
REMARK  105  A    between atoms: _261  and  _262
REMARK  106  A    between atoms: _265  and  _267
REMARK  107  A    between atoms: _267  and  _268
REMARK  108  A    between atoms: _267  and  _270
REMARK  109  A    between atoms: _270  and  _271
REMARK  110  A    between atoms: _273  and  _275
REMARK  111  A    between atoms: _275  and  _276
REMARK  112  A    between atoms: _275  and  _278
REMARK  113  A    between atoms: _278  and  _279
REMARK  114  A    between atoms: _279  and  _280
REMARK  115  A    between atoms: _280  and  _281
REMARK  116  A    between atoms: _290  and  _292
REMARK  117  A    between atoms: _292  and  _293
REMARK  118  A    between atoms: _295  and  _297
REMARK  119  A    between atoms: _297  and  _298
REMARK  120  A    between atoms: _297  and  _300
REMARK  121  A    between atoms: _303  and  _305
REMARK  122  A    between atoms: _305  and  _306
REMARK  123  A    between atoms: _305  and  _308
REMARK  124  A    between atoms: _308  and  _309
REMARK  125  A    between atoms: _312  and  _314
REMARK  126  A    between atoms: _314  and  _315
REMARK  127  A    between atoms: _317  and  _319
REMARK  128  A    between atoms: _319  and  _320
REMARK  129  A    between atoms: _323  and  _325
REMARK  130  A    between atoms: _325  and  _326
REMARK  131  A    between atoms: _325  and  _328
REMARK  132  A    between atoms: _328  and  _329
REMARK  133  A    between atoms: _329  and  _330
REMARK  134  A    between atoms: _333  and  _335
REMARK  135  A    between atoms: _335  and  _336
REMARK  136  A    between atoms: _335  and  _338
REMARK  137  A    between atoms: _338  and  _339
REMARK  138  A    between atoms: _344  and  _346
REMARK  139  A    between atoms: _346  and  _347
REMARK  140  A    between atoms: _346  and  _349
REMARK  141  A    between atoms: _349  and  _350
REMARK  142  A    between atoms: _350  and  _351
REMARK  143  A    between atoms: _351  and  _352
REMARK  144  A    between atoms: _361  and  _363
REMARK  145  A    between atoms: _363  and  _364
REMARK  146  A    between atoms: _366  and  _368
REMARK  147  A    between atoms: _368  and  _369
REMARK  148  A    between atoms: _368  and  _371
REMARK  149  A    between atoms: _371  and  _372
REMARK  150  A    between atoms: _375  and  _377
REMARK  151  A    between atoms: _377  and  _378
REMARK  152  A    between atoms: _377  and  _380
REMARK  153  A    between atoms: _380  and  _381
REMARK  154  A    between atoms: _381  and  _382
REMARK  155  A    between atoms: _387  and  _389
REMARK  156  A    between atoms: _389  and  _390
REMARK  157  A    between atoms: _392  and  _394
REMARK  158  A    between atoms: _394  and  _395
REMARK  159  A    between atoms: _394  and  _397
REMARK  160  A    between atoms: _397  and  _398
REMARK  161  A    between atoms: _404  and  _406
REMARK  162  A    between atoms: _406  and  _407
REMARK  163  A    between atoms: _409  and  _411
REMARK  164  A    between atoms: _411  and  _412
REMARK  165  A    between atoms: _411  and  _414
REMARK  166  A    between atoms: _414  and  _415
REMARK  167  A    between atoms: _418  and  _420
REMARK  168  A    between atoms: _420  and  _421
REMARK  169  A    between atoms: _420  and  _423
REMARK  170  A    between atoms: _423  and  _424
REMARK  171  A    between atoms: _426  and  _428
REMARK  172  A    between atoms: _428  and  _429
REMARK  173  A    between atoms: _428  and  _431
REMARK  174  A    between atoms: _431  and  _432
REMARK  175  A    between atoms: _432  and  _433
REMARK  176  A    between atoms: _438  and  _440
REMARK  177  A    between atoms: _440  and  _441
REMARK  178  A    between atoms: _440  and  _443
REMARK  179  A    between atoms: _443  and  _444
REMARK  180  A    between atoms: _447  and  _449
REMARK  181  A    between atoms: _449  and  _450
REMARK  182  A    between atoms: _449  and  _452
REMARK  183  A    between atoms: _452  and  _453
REMARK  184  A    between atoms: _455  and  _457
REMARK  185  A    between atoms: _457  and  _458
REMARK  186  A    between atoms: _460  and  _462
REMARK  187  A    between atoms: _462  and  _463
REMARK  188  A    between atoms: _462  and  _465
REMARK  189  A    between atoms: _465  and  _466
REMARK  190  A    between atoms: _468  and  _470
REMARK  191  A    between atoms: _470  and  _471
REMARK  192  A    between atoms: _474  and  _476
REMARK  193  A    between atoms: _476  and  _477
REMARK  194  A    between atoms: _476  and  _479
REMARK  195  A    between atoms: _479  and  _480
REMARK  196  A    between atoms: _483  and  _485
REMARK  197  A    between atoms: _485  and  _486
REMARK  198  A    between atoms: _485  and  _488
REMARK  199  A    between atoms: _491  and  _493
REMARK  200  A    between atoms: _493  and  _494
REMARK  201  A    between atoms: _493  and  _496
REMARK  202  A    between atoms: _496  and  _497
REMARK  203  A    between atoms: _497  and  _498
REMARK  204  A    between atoms: _498  and  _499
REMARK  205  A    between atoms: _499  and  _500
REMARK  206  A    between atoms: _505  and  _506
REMARK                            x       y       z     vdW  Elec       q    Type
REMARK                         _______ _______ _______ _____ _____    ______ ____
ROOT
ATOM      1  O   HOH     1      45.397  31.504   2.964  0.00  0.00    +0.000 OA
ENDROOT
TORSDOF 0
REMARK  Name = ../refined-set-2016/1tjp/1tjp_pocket.pdb
REMARK  206 active torsions:
REMARK  status: ('A' for Active; 'I' for Inactive)
REMARK    1  A    between atoms: _1  and  _3
REMARK    2  A    between atoms: _3  and  _4
REMARK    3  A    between atoms: _3  and  _6
REMARK    4  A    between atoms: _10  and  _11
REMARK    5  A    between atoms: _16  and  _18
REMARK    6  A    between atoms: _18  and  _19
REMARK    7  A    between atoms: _18  and  _21
REMARK    8  A    between atoms: _21  and  _22
REMARK    9  A    between atoms: _28  and  _30
REMARK   10  A    between atoms: _30  and  _31
REMARK   11  A    between atoms: _30  and  _33
REMARK   12  A    between atoms: _36  and  _38
REMARK   13  A    between atoms: _38  and  _39
REMARK   14  A    between atoms: _38  and  _41
REMARK   15  A    between atoms: _41  and  _42
REMARK   16  A    between atoms: _45  and  _47
REMARK   17  A    between atoms: _47  and  _48
REMARK   18  A    between atoms: _47  and  _50
REMARK   19  A    between atoms: _50  and  _51
REMARK   20  A    between atoms: _51  and  _52
REMARK   21  A    between atoms: _55  and  _57
REMARK   22  A    between atoms: _57  and  _58
REMARK   23  A    between atoms: _57  and  _60
REMARK   24  A    between atoms: _60  and  _61
REMARK   25  A    between atoms: _64  and  _66
REMARK   26  A    between atoms: _66  and  _67
REMARK   27  A    between atoms: _70  and  _71
REMARK   28  A    between atoms: _76  and  _78
REMARK   29  A    between atoms: _78  and  _79
REMARK   30  A    between atoms: _78  and  _81
REMARK   31  A    between atoms: _81  and  _82
REMARK   32  A    between atoms: _85  and  _87
REMARK   33  A    between atoms: _87  and  _88
REMARK   34  A    between atoms: _91  and  _93
REMARK   35  A    between atoms: _93  and  _94
REMARK   36  A    between atoms: _93  and  _96
REMARK   37  A    between atoms: _96  and  _97
REMARK   38  A    between atoms: _100  and  _102
REMARK   39  A    between atoms: _102  and  _103
REMARK   40  A    between atoms: _105  and  _107
REMARK   41  A    between atoms: _107  and  _108
REMARK   42  A    between atoms: _107  and  _110
REMARK   43  A    between atoms: _110  and  _111
REMARK   44  A    between atoms: _114  and  _116
REMARK   45  A    between atoms: _116  and  _117
REMARK   46  A    between atoms: _116  and  _119
REMARK   47  A    between atoms: _119  and  _120
REMARK   48  A    between atoms: _123  and  _125
REMARK   49  A    between atoms: _125  and  _126
REMARK   50  A    between atoms: _125  and  _128
REMARK   51  A    between atoms: _128  and  _129
REMARK   52  A    between atoms: _129  and  _130
REMARK   53  A    between atoms: _135  and  _137
REMARK   54  A    between atoms: _137  and  _138
REMARK   55  A    between atoms: _137  and  _140
REMARK   56  A    between atoms: _140  and  _141
REMARK   57  A    between atoms: _146  and  _148
REMARK   58  A    between atoms: _148  and  _149
REMARK   59  A    between atoms: _148  and  _151
REMARK   60  A    between atoms: _151  and  _152
REMARK   61  A    between atoms: _155  and  _157
REMARK   62  A    between atoms: _157  and  _158
REMARK   63  A    between atoms: _157  and  _160
REMARK   64  A    between atoms: _160  and  _161
REMARK   65  A    between atoms: _164  and  _166
REMARK   66  A    between atoms: _166  and  _167
REMARK   67  A    between atoms: _166  and  _169
REMARK   68  A    between atoms: _169  and  _170
REMARK   69  A    between atoms: _170  and  _171
REMARK   70  A    between atoms: _173  and  _175
REMARK   71  A    between atoms: _175  and  _176
REMARK   72  A    between atoms: _175  and  _178
REMARK   73  A    between atoms: _178  and  _179
REMARK   74  A    between atoms: _184  and  _185
REMARK   75  A    between atoms: _187  and  _189
REMARK   76  A    between atoms: _189  and  _190
REMARK   77  A    between atoms: _189  and  _192
REMARK   78  A    between atoms: _192  and  _193
REMARK   79  A    between atoms: _196  and  _198
REMARK   80  A    between atoms: _198  and  _199
REMARK   81  A    between atoms: _198  and  _201
REMARK   82  A    between atoms: _204  and  _206
REMARK   83  A    between atoms: _206  and  _207
REMARK   84  A    between atoms: _210  and  _212
REMARK   85  A    between atoms: _212  and  _213
REMARK   86  A    between atoms: _212  and  _215
REMARK   87  A    between atoms: _215  and  _216
REMARK   88  A    between atoms: _219  and  _221
REMARK   89  A    between atoms: _221  and  _222
REMARK   90  A    between atoms: _221  and  _224
REMARK   91  A    between atoms: _224  and  _225
REMARK   92  A    between atoms: _228  and  _230
REMARK   93  A    between atoms: _230  and  _231
REMARK   94  A    between atoms: _230  and  _233
REMARK   95  A    between atoms: _233  and  _234
REMARK   96  A    between atoms: _239  and  _240
REMARK   97  A    between atoms: _242  and  _244
REMARK   98  A    between atoms: _244  and  _245
REMARK   99  A    between atoms: _244  and  _247
REMARK  100  A    between atoms: _247  and  _248
REMARK  101  A    between atoms: _253  and  _254
REMARK  102  A    between atoms: _256  and  _258
REMARK  103  A    between atoms: _258  and  _259
REMARK  104  A    between atoms: _258  and  _261
REMARK  105  A    between atoms: _261  and  _262
REMARK  106  A    between atoms: _265  and  _267
REMARK  107  A    between atoms: _267  and  _268
REMARK  108  A    between atoms: _267  and  _270
REMARK  109  A    between atoms: _270  and  _271
REMARK  110  A    between atoms: _273  and  _275
REMARK  111  A    between atoms: _275  and  _276
REMARK  112  A    between atoms: _275  and  _278
REMARK  113  A    between atoms: _278  and  _279
REMARK  114  A    between atoms: _279  and  _280
REMARK  115  A    between atoms: _280  and  _281
REMARK  116  A    between atoms: _290  and  _292
REMARK  117  A    between atoms: _292  and  _293
REMARK  118  A    between atoms: _295  and  _297
REMARK  119  A    between atoms: _297  and  _298
REMARK  120  A    between atoms: _297  and  _300
REMARK  121  A    between atoms: _303  and  _305
REMARK  122  A    between atoms: _305  and  _306
REMARK  123  A    between atoms: _305  and  _308
REMARK  124  A    between atoms: _308  and  _309
REMARK  125  A    between atoms: _312  and  _314
REMARK  126  A    between atoms: _314  and  _315
REMARK  127  A    between atoms: _317  and  _319
REMARK  128  A    between atoms: _319  and  _320
REMARK  129  A    between atoms: _323  and  _325
REMARK  130  A    between atoms: _325  and  _326
REMARK  131  A    between atoms: _325  and  _328
REMARK  132  A    between atoms: _328  and  _329
REMARK  133  A    between atoms: _329  and  _330
REMARK  134  A    between atoms: _333  and  _335
REMARK  135  A    between atoms: _335  and  _336
REMARK  136  A    between atoms: _335  and  _338
REMARK  137  A    between atoms: _338  and  _339
REMARK  138  A    between atoms: _344  and  _346
REMARK  139  A    between atoms: _346  and  _347
REMARK  140  A    between atoms: _346  and  _349
REMARK  141  A    between atoms: _349  and  _350
REMARK  142  A    between atoms: _350  and  _351
REMARK  143  A    between atoms: _351  and  _352
REMARK  144  A    between atoms: _361  and  _363
REMARK  145  A    between atoms: _363  and  _364
REMARK  146  A    between atoms: _366  and  _368
REMARK  147  A    between atoms: _368  and  _369
REMARK  148  A    between atoms: _368  and  _371
REMARK  149  A    between atoms: _371  and  _372
REMARK  150  A    between atoms: _375  and  _377
REMARK  151  A    between atoms: _377  and  _378
REMARK  152  A    between atoms: _377  and  _380
REMARK  153  A    between atoms: _380  and  _381
REMARK  154  A    between atoms: _381  and  _382
REMARK  155  A    between atoms: _387  and  _389
REMARK  156  A    between atoms: _389  and  _390
REMARK  157  A    between atoms: _392  and  _394
REMARK  158  A    between atoms: _394  and  _395
REMARK  159  A    between atoms: _394  and  _397
REMARK  160  A    between atoms: _397  and  _398
REMARK  161  A    between atoms: _404  and  _406
REMARK  162  A    between atoms: _406  and  _407
REMARK  163  A    between atoms: _409  and  _411
REMARK  164  A    between atoms: _411  and  _412
REMARK  165  A    between atoms: _411  and  _414
REMARK  166  A    between atoms: _414  and  _415
REMARK  167  A    between atoms: _418  and  _420
REMARK  168  A    between atoms: _420  and  _421
REMARK  169  A    between atoms: _420  and  _423
REMARK  170  A    between atoms: _423  and  _424
REMARK  171  A    between atoms: _426  and  _428
REMARK  172  A    between atoms: _428  and  _429
REMARK  173  A    between atoms: _428  and  _431
REMARK  174  A    between atoms: _431  and  _432
REMARK  175  A    between atoms: _432  and  _433
REMARK  176  A    between atoms: _438  and  _440
REMARK  177  A    between atoms: _440  and  _441
REMARK  178  A    between atoms: _440  and  _443
REMARK  179  A    between atoms: _443  and  _444
REMARK  180  A    between atoms: _447  and  _449
REMARK  181  A    between atoms: _449  and  _450
REMARK  182  A    between atoms: _449  and  _452
REMARK  183  A    between atoms: _452  and  _453
REMARK  184  A    between atoms: _455  and  _457
REMARK  185  A    between atoms: _457  and  _458
REMARK  186  A    between atoms: _460  and  _462
REMARK  187  A    between atoms: _462  and  _463
REMARK  188  A    between atoms: _462  and  _465
REMARK  189  A    between atoms: _465  and  _466
REMARK  190  A    between atoms: _468  and  _470
REMARK  191  A    between atoms: _470  and  _471
REMARK  192  A    between atoms: _474  and  _476
REMARK  193  A    between atoms: _476  and  _477
REMARK  194  A    between atoms: _476  and  _479
REMARK  195  A    between atoms: _479  and  _480
REMARK  196  A    between atoms: _483  and  _485
REMARK  197  A    between atoms: _485  and  _486
REMARK  198  A    between atoms: _485  and  _488
REMARK  199  A    between atoms: _491  and  _493
REMARK  200  A    between atoms: _493  and  _494
REMARK  201  A    between atoms: _493  and  _496
REMARK  202  A    between atoms: _496  and  _497
REMARK  203  A    between atoms: _497  and  _498
REMARK  204  A    between atoms: _498  and  _499
REMARK  205  A    between atoms: _499  and  _500
REMARK  206  A    between atoms: _505  and  _506
REMARK                            x       y       z     vdW  Elec       q    Type
REMARK                         _______ _______ _______ _____ _____    ______ ____
ROOT
ATOM      1  O   HOH     1      46.568  32.260   8.259  0.00  0.00    +0.000 OA
ENDROOT
TORSDOF 0
REMARK  Name = ../refined-set-2016/1tjp/1tjp_pocket.pdb
REMARK  206 active torsions:
REMARK  status: ('A' for Active; 'I' for Inactive)
REMARK    1  A    between atoms: _1  and  _3
REMARK    2  A    between atoms: _3  and  _4
REMARK    3  A    between atoms: _3  and  _6
REMARK    4  A    between atoms: _10  and  _11
REMARK    5  A    between atoms: _16  and  _18
REMARK    6  A    between atoms: _18  and  _19
REMARK    7  A    between atoms: _18  and  _21
REMARK    8  A    between atoms: _21  and  _22
REMARK    9  A    between atoms: _28  and  _30
REMARK   10  A    between atoms: _30  and  _31
REMARK   11  A    between atoms: _30  and  _33
REMARK   12  A    between atoms: _36  and  _38
REMARK   13  A    between atoms: _38  and  _39
REMARK   14  A    between atoms: _38  and  _41
REMARK   15  A    between atoms: _41  and  _42
REMARK   16  A    between atoms: _45  and  _47
REMARK   17  A    between atoms: _47  and  _48
REMARK   18  A    between atoms: _47  and  _50
REMARK   19  A    between atoms: _50  and  _51
REMARK   20  A    between atoms: _51  and  _52
REMARK   21  A    between atoms: _55  and  _57
REMARK   22  A    between atoms: _57  and  _58
REMARK   23  A    between atoms: _57  and  _60
REMARK   24  A    between atoms: _60  and  _61
REMARK   25  A    between atoms: _64  and  _66
REMARK   26  A    between atoms: _66  and  _67
REMARK   27  A    between atoms: _70  and  _71
REMARK   28  A    between atoms: _76  and  _78
REMARK   29  A    between atoms: _78  and  _79
REMARK   30  A    between atoms: _78  and  _81
REMARK   31  A    between atoms: _81  and  _82
REMARK   32  A    between atoms: _85  and  _87
REMARK   33  A    between atoms: _87  and  _88
REMARK   34  A    between atoms: _91  and  _93
REMARK   35  A    between atoms: _93  and  _94
REMARK   36  A    between atoms: _93  and  _96
REMARK   37  A    between atoms: _96  and  _97
REMARK   38  A    between atoms: _100  and  _102
REMARK   39  A    between atoms: _102  and  _103
REMARK   40  A    between atoms: _105  and  _107
REMARK   41  A    between atoms: _107  and  _108
REMARK   42  A    between atoms: _107  and  _110
REMARK   43  A    between atoms: _110  and  _111
REMARK   44  A    between atoms: _114  and  _116
REMARK   45  A    between atoms: _116  and  _117
REMARK   46  A    between atoms: _116  and  _119
REMARK   47  A    between atoms: _119  and  _120
REMARK   48  A    between atoms: _123  and  _125
REMARK   49  A    between atoms: _125  and  _126
REMARK   50  A    between atoms: _125  and  _128
REMARK   51  A    between atoms: _128  and  _129
REMARK   52  A    between atoms: _129  and  _130
REMARK   53  A    between atoms: _135  and  _137
REMARK   54  A    between atoms: _137  and  _138
REMARK   55  A    between atoms: _137  and  _140
REMARK   56  A    between atoms: _140  and  _141
REMARK   57  A    between atoms: _146  and  _148
REMARK   58  A    between atoms: _148  and  _149
REMARK   59  A    between atoms: _148  and  _151
REMARK   60  A    between atoms: _151  and  _152
REMARK   61  A    between atoms: _155  and  _157
REMARK   62  A    between atoms: _157  and  _158
REMARK   63  A    between atoms: _157  and  _160
REMARK   64  A    between atoms: _160  and  _161
REMARK   65  A    between atoms: _164  and  _166
REMARK   66  A    between atoms: _166  and  _167
REMARK   67  A    between atoms: _166  and  _169
REMARK   68  A    between atoms: _169  and  _170
REMARK   69  A    between atoms: _170  and  _171
REMARK   70  A    between atoms: _173  and  _175
REMARK   71  A    between atoms: _175  and  _176
REMARK   72  A    between atoms: _175  and  _178
REMARK   73  A    between atoms: _178  and  _179
REMARK   74  A    between atoms: _184  and  _185
REMARK   75  A    between atoms: _187  and  _189
REMARK   76  A    between atoms: _189  and  _190
REMARK   77  A    between atoms: _189  and  _192
REMARK   78  A    between atoms: _192  and  _193
REMARK   79  A    between atoms: _196  and  _198
REMARK   80  A    between atoms: _198  and  _199
REMARK   81  A    between atoms: _198  and  _201
REMARK   82  A    between atoms: _204  and  _206
REMARK   83  A    between atoms: _206  and  _207
REMARK   84  A    between atoms: _210  and  _212
REMARK   85  A    between atoms: _212  and  _213
REMARK   86  A    between atoms: _212  and  _215
REMARK   87  A    between atoms: _215  and  _216
REMARK   88  A    between atoms: _219  and  _221
REMARK   89  A    between atoms: _221  and  _222
REMARK   90  A    between atoms: _221  and  _224
REMARK   91  A    between atoms: _224  and  _225
REMARK   92  A    between atoms: _228  and  _230
REMARK   93  A    between atoms: _230  and  _231
REMARK   94  A    between atoms: _230  and  _233
REMARK   95  A    between atoms: _233  and  _234
REMARK   96  A    between atoms: _239  and  _240
REMARK   97  A    between atoms: _242  and  _244
REMARK   98  A    between atoms: _244  and  _245
REMARK   99  A    between atoms: _244  and  _247
REMARK  100  A    between atoms: _247  and  _248
REMARK  101  A    between atoms: _253  and  _254
REMARK  102  A    between atoms: _256  and  _258
REMARK  103  A    between atoms: _258  and  _259
REMARK  104  A    between atoms: _258  and  _261
REMARK  105  A    between atoms: _261  and  _262
REMARK  106  A    between atoms: _265  and  _267
REMARK  107  A    between atoms: _267  and  _268
REMARK  108  A    between atoms: _267  and  _270
REMARK  109  A    between atoms: _270  and  _271
REMARK  110  A    between atoms: _273  and  _275
REMARK  111  A    between atoms: _275  and  _276
REMARK  112  A    between atoms: _275  and  _278
REMARK  113  A    between atoms: _278  and  _279
REMARK  114  A    between atoms: _279  and  _280
REMARK  115  A    between atoms: _280  and  _281
REMARK  116  A    between atoms: _290  and  _292
REMARK  117  A    between atoms: _292  and  _293
REMARK  118  A    between atoms: _295  and  _297
REMARK  119  A    between atoms: _297  and  _298
REMARK  120  A    between atoms: _297  and  _300
REMARK  121  A    between atoms: _303  and  _305
REMARK  122  A    between atoms: _305  and  _306
REMARK  123  A    between atoms: _305  and  _308
REMARK  124  A    between atoms: _308  and  _309
REMARK  125  A    between atoms: _312  and  _314
REMARK  126  A    between atoms: _314  and  _315
REMARK  127  A    between atoms: _317  and  _319
REMARK  128  A    between atoms: _319  and  _320
REMARK  129  A    between atoms: _323  and  _325
REMARK  130  A    between atoms: _325  and  _326
REMARK  131  A    between atoms: _325  and  _328
REMARK  132  A    between atoms: _328  and  _329
REMARK  133  A    between atoms: _329  and  _330
REMARK  134  A    between atoms: _333  and  _335
REMARK  135  A    between atoms: _335  and  _336
REMARK  136  A    between atoms: _335  and  _338
REMARK  137  A    between atoms: _338  and  _339
REMARK  138  A    between atoms: _344  and  _346
REMARK  139  A    between atoms: _346  and  _347
REMARK  140  A    between atoms: _346  and  _349
REMARK  141  A    between atoms: _349  and  _350
REMARK  142  A    between atoms: _350  and  _351
REMARK  143  A    between atoms: _351  and  _352
REMARK  144  A    between atoms: _361  and  _363
REMARK  145  A    between atoms: _363  and  _364
REMARK  146  A    between atoms: _366  and  _368
REMARK  147  A    between atoms: _368  and  _369
REMARK  148  A    between atoms: _368  and  _371
REMARK  149  A    between atoms: _371  and  _372
REMARK  150  A    between atoms: _375  and  _377
REMARK  151  A    between atoms: _377  and  _378
REMARK  152  A    between atoms: _377  and  _380
REMARK  153  A    between atoms: _380  and  _381
REMARK  154  A    between atoms: _381  and  _382
REMARK  155  A    between atoms: _387  and  _389
REMARK  156  A    between atoms: _389  and  _390
REMARK  157  A    between atoms: _392  and  _394
REMARK  158  A    between atoms: _394  and  _395
REMARK  159  A    between atoms: _394  and  _397
REMARK  160  A    between atoms: _397  and  _398
REMARK  161  A    between atoms: _404  and  _406
REMARK  162  A    between atoms: _406  and  _407
REMARK  163  A    between atoms: _409  and  _411
REMARK  164  A    between atoms: _411  and  _412
REMARK  165  A    between atoms: _411  and  _414
REMARK  166  A    between atoms: _414  and  _415
REMARK  167  A    between atoms: _418  and  _420
REMARK  168  A    between atoms: _420  and  _421
REMARK  169  A    between atoms: _420  and  _423
REMARK  170  A    between atoms: _423  and  _424
REMARK  171  A    between atoms: _426  and  _428
REMARK  172  A    between atoms: _428  and  _429
REMARK  173  A    between atoms: _428  and  _431
REMARK  174  A    between atoms: _431  and  _432
REMARK  175  A    between atoms: _432  and  _433
REMARK  176  A    between atoms: _438  and  _440
REMARK  177  A    between atoms: _440  and  _441
REMARK  178  A    between atoms: _440  and  _443
REMARK  179  A    between atoms: _443  and  _444
REMARK  180  A    between atoms: _447  and  _449
REMARK  181  A    between atoms: _449  and  _450
REMARK  182  A    between atoms: _449  and  _452
REMARK  183  A    between atoms: _452  and  _453
REMARK  184  A    between atoms: _455  and  _457
REMARK  185  A    between atoms: _457  and  _458
REMARK  186  A    between atoms: _460  and  _462
REMARK  187  A    between atoms: _462  and  _463
REMARK  188  A    between atoms: _462  and  _465
REMARK  189  A    between atoms: _465  and  _466
REMARK  190  A    between atoms: _468  and  _470
REMARK  191  A    between atoms: _470  and  _471
REMARK  192  A    between atoms: _474  and  _476
REMARK  193  A    between atoms: _476  and  _477
REMARK  194  A    between atoms: _476  and  _479
REMARK  195  A    between atoms: _479  and  _480
REMARK  196  A    between atoms: _483  and  _485
REMARK  197  A    between atoms: _485  and  _486
REMARK  198  A    between atoms: _485  and  _488
REMARK  199  A    between atoms: _491  and  _493
REMARK  200  A    between atoms: _493  and  _494
REMARK  201  A    between atoms: _493  and  _496
REMARK  202  A    between atoms: _496  and  _497
REMARK  203  A    between atoms: _497  and  _498
REMARK  204  A    between atoms: _498  and  _499
REMARK  205  A    between atoms: _499  and  _500
REMARK  206  A    between atoms: _505  and  _506
REMARK                            x       y       z     vdW  Elec       q    Type
REMARK                         _______ _______ _______ _____ _____    ______ ____
ROOT
ATOM      1  O   HOH     1      55.349  29.337  17.041  0.00  0.00    +0.000 OA
ENDROOT
TORSDOF 0
REMARK  Name = ../refined-set-2016/1tjp/1tjp_pocket.pdb
REMARK  206 active torsions:
REMARK  status: ('A' for Active; 'I' for Inactive)
REMARK    1  A    between atoms: _1  and  _3
REMARK    2  A    between atoms: _3  and  _4
REMARK    3  A    between atoms: _3  and  _6
REMARK    4  A    between atoms: _10  and  _11
REMARK    5  A    between atoms: _16  and  _18
REMARK    6  A    between atoms: _18  and  _19
REMARK    7  A    between atoms: _18  and  _21
REMARK    8  A    between atoms: _21  and  _22
REMARK    9  A    between atoms: _28  and  _30
REMARK   10  A    between atoms: _30  and  _31
REMARK   11  A    between atoms: _30  and  _33
REMARK   12  A    between atoms: _36  and  _38
REMARK   13  A    between atoms: _38  and  _39
REMARK   14  A    between atoms: _38  and  _41
REMARK   15  A    between atoms: _41  and  _42
REMARK   16  A    between atoms: _45  and  _47
REMARK   17  A    between atoms: _47  and  _48
REMARK   18  A    between atoms: _47  and  _50
REMARK   19  A    between atoms: _50  and  _51
REMARK   20  A    between atoms: _51  and  _52
REMARK   21  A    between atoms: _55  and  _57
REMARK   22  A    between atoms: _57  and  _58
REMARK   23  A    between atoms: _57  and  _60
REMARK   24  A    between atoms: _60  and  _61
REMARK   25  A    between atoms: _64  and  _66
REMARK   26  A    between atoms: _66  and  _67
REMARK   27  A    between atoms: _70  and  _71
REMARK   28  A    between atoms: _76  and  _78
REMARK   29  A    between atoms: _78  and  _79
REMARK   30  A    between atoms: _78  and  _81
REMARK   31  A    between atoms: _81  and  _82
REMARK   32  A    between atoms: _85  and  _87
REMARK   33  A    between atoms: _87  and  _88
REMARK   34  A    between atoms: _91  and  _93
REMARK   35  A    between atoms: _93  and  _94
REMARK   36  A    between atoms: _93  and  _96
REMARK   37  A    between atoms: _96  and  _97
REMARK   38  A    between atoms: _100  and  _102
REMARK   39  A    between atoms: _102  and  _103
REMARK   40  A    between atoms: _105  and  _107
REMARK   41  A    between atoms: _107  and  _108
REMARK   42  A    between atoms: _107  and  _110
REMARK   43  A    between atoms: _110  and  _111
REMARK   44  A    between atoms: _114  and  _116
REMARK   45  A    between atoms: _116  and  _117
REMARK   46  A    between atoms: _116  and  _119
REMARK   47  A    between atoms: _119  and  _120
REMARK   48  A    between atoms: _123  and  _125
REMARK   49  A    between atoms: _125  and  _126
REMARK   50  A    between atoms: _125  and  _128
REMARK   51  A    between atoms: _128  and  _129
REMARK   52  A    between atoms: _129  and  _130
REMARK   53  A    between atoms: _135  and  _137
REMARK   54  A    between atoms: _137  and  _138
REMARK   55  A    between atoms: _137  and  _140
REMARK   56  A    between atoms: _140  and  _141
REMARK   57  A    between atoms: _146  and  _148
REMARK   58  A    between atoms: _148  and  _149
REMARK   59  A    between atoms: _148  and  _151
REMARK   60  A    between atoms: _151  and  _152
REMARK   61  A    between atoms: _155  and  _157
REMARK   62  A    between atoms: _157  and  _158
REMARK   63  A    between atoms: _157  and  _160
REMARK   64  A    between atoms: _160  and  _161
REMARK   65  A    between atoms: _164  and  _166
REMARK   66  A    between atoms: _166  and  _167
REMARK   67  A    between atoms: _166  and  _169
REMARK   68  A    between atoms: _169  and  _170
REMARK   69  A    between atoms: _170  and  _171
REMARK   70  A    between atoms: _173  and  _175
REMARK   71  A    between atoms: _175  and  _176
REMARK   72  A    between atoms: _175  and  _178
REMARK   73  A    between atoms: _178  and  _179
REMARK   74  A    between atoms: _184  and  _185
REMARK   75  A    between atoms: _187  and  _189
REMARK   76  A    between atoms: _189  and  _190
REMARK   77  A    between atoms: _189  and  _192
REMARK   78  A    between atoms: _192  and  _193
REMARK   79  A    between atoms: _196  and  _198
REMARK   80  A    between atoms: _198  and  _199
REMARK   81  A    between atoms: _198  and  _201
REMARK   82  A    between atoms: _204  and  _206
REMARK   83  A    between atoms: _206  and  _207
REMARK   84  A    between atoms: _210  and  _212
REMARK   85  A    between atoms: _212  and  _213
REMARK   86  A    between atoms: _212  and  _215
REMARK   87  A    between atoms: _215  and  _216
REMARK   88  A    between atoms: _219  and  _221
REMARK   89  A    between atoms: _221  and  _222
REMARK   90  A    between atoms: _221  and  _224
REMARK   91  A    between atoms: _224  and  _225
REMARK   92  A    between atoms: _228  and  _230
REMARK   93  A    between atoms: _230  and  _231
REMARK   94  A    between atoms: _230  and  _233
REMARK   95  A    between atoms: _233  and  _234
REMARK   96  A    between atoms: _239  and  _240
REMARK   97  A    between atoms: _242  and  _244
REMARK   98  A    between atoms: _244  and  _245
REMARK   99  A    between atoms: _244  and  _247
REMARK  100  A    between atoms: _247  and  _248
REMARK  101  A    between atoms: _253  and  _254
REMARK  102  A    between atoms: _256  and  _258
REMARK  103  A    between atoms: _258  and  _259
REMARK  104  A    between atoms: _258  and  _261
REMARK  105  A    between atoms: _261  and  _262
REMARK  106  A    between atoms: _265  and  _267
REMARK  107  A    between atoms: _267  and  _268
REMARK  108  A    between atoms: _267  and  _270
REMARK  109  A    between atoms: _270  and  _271
REMARK  110  A    between atoms: _273  and  _275
REMARK  111  A    between atoms: _275  and  _276
REMARK  112  A    between atoms: _275  and  _278
REMARK  113  A    between atoms: _278  and  _279
REMARK  114  A    between atoms: _279  and  _280
REMARK  115  A    between atoms: _280  and  _281
REMARK  116  A    between atoms: _290  and  _292
REMARK  117  A    between atoms: _292  and  _293
REMARK  118  A    between atoms: _295  and  _297
REMARK  119  A    between atoms: _297  and  _298
REMARK  120  A    between atoms: _297  and  _300
REMARK  121  A    between atoms: _303  and  _305
REMARK  122  A    between atoms: _305  and  _306
REMARK  123  A    between atoms: _305  and  _308
REMARK  124  A    between atoms: _308  and  _309
REMARK  125  A    between atoms: _312  and  _314
REMARK  126  A    between atoms: _314  and  _315
REMARK  127  A    between atoms: _317  and  _319
REMARK  128  A    between atoms: _319  and  _320
REMARK  129  A    between atoms: _323  and  _325
REMARK  130  A    between atoms: _325  and  _326
REMARK  131  A    between atoms: _325  and  _328
REMARK  132  A    between atoms: _328  and  _329
REMARK  133  A    between atoms: _329  and  _330
REMARK  134  A    between atoms: _333  and  _335
REMARK  135  A    between atoms: _335  and  _336
REMARK  136  A    between atoms: _335  and  _338
REMARK  137  A    between atoms: _338  and  _339
REMARK  138  A    between atoms: _344  and  _346
REMARK  139  A    between atoms: _346  and  _347
REMARK  140  A    between atoms: _346  and  _349
REMARK  141  A    between atoms: _349  and  _350
REMARK  142  A    between atoms: _350  and  _351
REMARK  143  A    between atoms: _351  and  _352
REMARK  144  A    between atoms: _361  and  _363
REMARK  145  A    between atoms: _363  and  _364
REMARK  146  A    between atoms: _366  and  _368
REMARK  147  A    between atoms: _368  and  _369
REMARK  148  A    between atoms: _368  and  _371
REMARK  149  A    between atoms: _371  and  _372
REMARK  150  A    between atoms: _375  and  _377
REMARK  151  A    between atoms: _377  and  _378
REMARK  152  A    between atoms: _377  and  _380
REMARK  153  A    between atoms: _380  and  _381
REMARK  154  A    between atoms: _381  and  _382
REMARK  155  A    between atoms: _387  and  _389
REMARK  156  A    between atoms: _389  and  _390
REMARK  157  A    between atoms: _392  and  _394
REMARK  158  A    between atoms: _394  and  _395
REMARK  159  A    between atoms: _394  and  _397
REMARK  160  A    between atoms: _397  and  _398
REMARK  161  A    between atoms: _404  and  _406
REMARK  162  A    between atoms: _406  and  _407
REMARK  163  A    between atoms: _409  and  _411
REMARK  164  A    between atoms: _411  and  _412
REMARK  165  A    between atoms: _411  and  _414
REMARK  166  A    between atoms: _414  and  _415
REMARK  167  A    between atoms: _418  and  _420
REMARK  168  A    between atoms: _420  and  _421
REMARK  169  A    between atoms: _420  and  _423
REMARK  170  A    between atoms: _423  and  _424
REMARK  171  A    between atoms: _426  and  _428
REMARK  172  A    between atoms: _428  and  _429
REMARK  173  A    between atoms: _428  and  _431
REMARK  174  A    between atoms: _431  and  _432
REMARK  175  A    between atoms: _432  and  _433
REMARK  176  A    between atoms: _438  and  _440
REMARK  177  A    between atoms: _440  and  _441
REMARK  178  A    between atoms: _440  and  _443
REMARK  179  A    between atoms: _443  and  _444
REMARK  180  A    between atoms: _447  and  _449
REMARK  181  A    between atoms: _449  and  _450
REMARK  182  A    between atoms: _449  and  _452
REMARK  183  A    between atoms: _452  and  _453
REMARK  184  A    between atoms: _455  and  _457
REMARK  185  A    between atoms: _457  and  _458
REMARK  186  A    between atoms: _460  and  _462
REMARK  187  A    between atoms: _462  and  _463
REMARK  188  A    between atoms: _462  and  _465
REMARK  189  A    between atoms: _465  and  _466
REMARK  190  A    between atoms: _468  and  _470
REMARK  191  A    between atoms: _470  and  _471
REMARK  192  A    between atoms: _474  and  _476
REMARK  193  A    between atoms: _476  and  _477
REMARK  194  A    between atoms: _476  and  _479
REMARK  195  A    between atoms: _479  and  _480
REMARK  196  A    between atoms: _483  and  _485
REMARK  197  A    between atoms: _485  and  _486
REMARK  198  A    between atoms: _485  and  _488
REMARK  199  A    between atoms: _491  and  _493
REMARK  200  A    between atoms: _493  and  _494
REMARK  201  A    between atoms: _493  and  _496
REMARK  202  A    between atoms: _496  and  _497
REMARK  203  A    between atoms: _497  and  _498
REMARK  204  A    between atoms: _498  and  _499
REMARK  205  A    between atoms: _499  and  _500
REMARK  206  A    between atoms: _505  and  _506
REMARK                            x       y       z     vdW  Elec       q    Type
REMARK                         _______ _______ _______ _____ _____    ______ ____
ROOT
ATOM      1  O   HOH     1      44.881  28.590   9.612  0.00  0.00    +0.000 OA
ENDROOT
TORSDOF 0
REMARK  Name = ../refined-set-2016/1tjp/1tjp_pocket.pdb
REMARK  206 active torsions:
REMARK  status: ('A' for Active; 'I' for Inactive)
REMARK    1  A    between atoms: _1  and  _3
REMARK    2  A    between atoms: _3  and  _4
REMARK    3  A    between atoms: _3  and  _6
REMARK    4  A    between atoms: _10  and  _11
REMARK    5  A    between atoms: _16  and  _18
REMARK    6  A    between atoms: _18  and  _19
REMARK    7  A    between atoms: _18  and  _21
REMARK    8  A    between atoms: _21  and  _22
REMARK    9  A    between atoms: _28  and  _30
REMARK   10  A    between atoms: _30  and  _31
REMARK   11  A    between atoms: _30  and  _33
REMARK   12  A    between atoms: _36  and  _38
REMARK   13  A    between atoms: _38  and  _39
REMARK   14  A    between atoms: _38  and  _41
REMARK   15  A    between atoms: _41  and  _42
REMARK   16  A    between atoms: _45  and  _47
REMARK   17  A    between atoms: _47  and  _48
REMARK   18  A    between atoms: _47  and  _50
REMARK   19  A    between atoms: _50  and  _51
REMARK   20  A    between atoms: _51  and  _52
REMARK   21  A    between atoms: _55  and  _57
REMARK   22  A    between atoms: _57  and  _58
REMARK   23  A    between atoms: _57  and  _60
REMARK   24  A    between atoms: _60  and  _61
REMARK   25  A    between atoms: _64  and  _66
REMARK   26  A    between atoms: _66  and  _67
REMARK   27  A    between atoms: _70  and  _71
REMARK   28  A    between atoms: _76  and  _78
REMARK   29  A    between atoms: _78  and  _79
REMARK   30  A    between atoms: _78  and  _81
REMARK   31  A    between atoms: _81  and  _82
REMARK   32  A    between atoms: _85  and  _87
REMARK   33  A    between atoms: _87  and  _88
REMARK   34  A    between atoms: _91  and  _93
REMARK   35  A    between atoms: _93  and  _94
REMARK   36  A    between atoms: _93  and  _96
REMARK   37  A    between atoms: _96  and  _97
REMARK   38  A    between atoms: _100  and  _102
REMARK   39  A    between atoms: _102  and  _103
REMARK   40  A    between atoms: _105  and  _107
REMARK   41  A    between atoms: _107  and  _108
REMARK   42  A    between atoms: _107  and  _110
REMARK   43  A    between atoms: _110  and  _111
REMARK   44  A    between atoms: _114  and  _116
REMARK   45  A    between atoms: _116  and  _117
REMARK   46  A    between atoms: _116  and  _119
REMARK   47  A    between atoms: _119  and  _120
REMARK   48  A    between atoms: _123  and  _125
REMARK   49  A    between atoms: _125  and  _126
REMARK   50  A    between atoms: _125  and  _128
REMARK   51  A    between atoms: _128  and  _129
REMARK   52  A    between atoms: _129  and  _130
REMARK   53  A    between atoms: _135  and  _137
REMARK   54  A    between atoms: _137  and  _138
REMARK   55  A    between atoms: _137  and  _140
REMARK   56  A    between atoms: _140  and  _141
REMARK   57  A    between atoms: _146  and  _148
REMARK   58  A    between atoms: _148  and  _149
REMARK   59  A    between atoms: _148  and  _151
REMARK   60  A    between atoms: _151  and  _152
REMARK   61  A    between atoms: _155  and  _157
REMARK   62  A    between atoms: _157  and  _158
REMARK   63  A    between atoms: _157  and  _160
REMARK   64  A    between atoms: _160  and  _161
REMARK   65  A    between atoms: _164  and  _166
REMARK   66  A    between atoms: _166  and  _167
REMARK   67  A    between atoms: _166  and  _169
REMARK   68  A    between atoms: _169  and  _170
REMARK   69  A    between atoms: _170  and  _171
REMARK   70  A    between atoms: _173  and  _175
REMARK   71  A    between atoms: _175  and  _176
REMARK   72  A    between atoms: _175  and  _178
REMARK   73  A    between atoms: _178  and  _179
REMARK   74  A    between atoms: _184  and  _185
REMARK   75  A    between atoms: _187  and  _189
REMARK   76  A    between atoms: _189  and  _190
REMARK   77  A    between atoms: _189  and  _192
REMARK   78  A    between atoms: _192  and  _193
REMARK   79  A    between atoms: _196  and  _198
REMARK   80  A    between atoms: _198  and  _199
REMARK   81  A    between atoms: _198  and  _201
REMARK   82  A    between atoms: _204  and  _206
REMARK   83  A    between atoms: _206  and  _207
REMARK   84  A    between atoms: _210  and  _212
REMARK   85  A    between atoms: _212  and  _213
REMARK   86  A    between atoms: _212  and  _215
REMARK   87  A    between atoms: _215  and  _216
REMARK   88  A    between atoms: _219  and  _221
REMARK   89  A    between atoms: _221  and  _222
REMARK   90  A    between atoms: _221  and  _224
REMARK   91  A    between atoms: _224  and  _225
REMARK   92  A    between atoms: _228  and  _230
REMARK   93  A    between atoms: _230  and  _231
REMARK   94  A    between atoms: _230  and  _233
REMARK   95  A    between atoms: _233  and  _234
REMARK   96  A    between atoms: _239  and  _240
REMARK   97  A    between atoms: _242  and  _244
REMARK   98  A    between atoms: _244  and  _245
REMARK   99  A    between atoms: _244  and  _247
REMARK  100  A    between atoms: _247  and  _248
REMARK  101  A    between atoms: _253  and  _254
REMARK  102  A    between atoms: _256  and  _258
REMARK  103  A    between atoms: _258  and  _259
REMARK  104  A    between atoms: _258  and  _261
REMARK  105  A    between atoms: _261  and  _262
REMARK  106  A    between atoms: _265  and  _267
REMARK  107  A    between atoms: _267  and  _268
REMARK  108  A    between atoms: _267  and  _270
REMARK  109  A    between atoms: _270  and  _271
REMARK  110  A    between atoms: _273  and  _275
REMARK  111  A    between atoms: _275  and  _276
REMARK  112  A    between atoms: _275  and  _278
REMARK  113  A    between atoms: _278  and  _279
REMARK  114  A    between atoms: _279  and  _280
REMARK  115  A    between atoms: _280  and  _281
REMARK  116  A    between atoms: _290  and  _292
REMARK  117  A    between atoms: _292  and  _293
REMARK  118  A    between atoms: _295  and  _297
REMARK  119  A    between atoms: _297  and  _298
REMARK  120  A    between atoms: _297  and  _300
REMARK  121  A    between atoms: _303  and  _305
REMARK  122  A    between atoms: _305  and  _306
REMARK  123  A    between atoms: _305  and  _308
REMARK  124  A    between atoms: _308  and  _309
REMARK  125  A    between atoms: _312  and  _314
REMARK  126  A    between atoms: _314  and  _315
REMARK  127  A    between atoms: _317  and  _319
REMARK  128  A    between atoms: _319  and  _320
REMARK  129  A    between atoms: _323  and  _325
REMARK  130  A    between atoms: _325  and  _326
REMARK  131  A    between atoms: _325  and  _328
REMARK  132  A    between atoms: _328  and  _329
REMARK  133  A    between atoms: _329  and  _330
REMARK  134  A    between atoms: _333  and  _335
REMARK  135  A    between atoms: _335  and  _336
REMARK  136  A    between atoms: _335  and  _338
REMARK  137  A    between atoms: _338  and  _339
REMARK  138  A    between atoms: _344  and  _346
REMARK  139  A    between atoms: _346  and  _347
REMARK  140  A    between atoms: _346  and  _349
REMARK  141  A    between atoms: _349  and  _350
REMARK  142  A    between atoms: _350  and  _351
REMARK  143  A    between atoms: _351  and  _352
REMARK  144  A    between atoms: _361  and  _363
REMARK  145  A    between atoms: _363  and  _364
REMARK  146  A    between atoms: _366  and  _368
REMARK  147  A    between atoms: _368  and  _369
REMARK  148  A    between atoms: _368  and  _371
REMARK  149  A    between atoms: _371  and  _372
REMARK  150  A    between atoms: _375  and  _377
REMARK  151  A    between atoms: _377  and  _378
REMARK  152  A    between atoms: _377  and  _380
REMARK  153  A    between atoms: _380  and  _381
REMARK  154  A    between atoms: _381  and  _382
REMARK  155  A    between atoms: _387  and  _389
REMARK  156  A    between atoms: _389  and  _390
REMARK  157  A    between atoms: _392  and  _394
REMARK  158  A    between atoms: _394  and  _395
REMARK  159  A    between atoms: _394  and  _397
REMARK  160  A    between atoms: _397  and  _398
REMARK  161  A    between atoms: _404  and  _406
REMARK  162  A    between atoms: _406  and  _407
REMARK  163  A    between atoms: _409  and  _411
REMARK  164  A    between atoms: _411  and  _412
REMARK  165  A    between atoms: _411  and  _414
REMARK  166  A    between atoms: _414  and  _415
REMARK  167  A    between atoms: _418  and  _420
REMARK  168  A    between atoms: _420  and  _421
REMARK  169  A    between atoms: _420  and  _423
REMARK  170  A    between atoms: _423  and  _424
REMARK  171  A    between atoms: _426  and  _428
REMARK  172  A    between atoms: _428  and  _429
REMARK  173  A    between atoms: _428  and  _431
REMARK  174  A    between atoms: _431  and  _432
REMARK  175  A    between atoms: _432  and  _433
REMARK  176  A    between atoms: _438  and  _440
REMARK  177  A    between atoms: _440  and  _441
REMARK  178  A    between atoms: _440  and  _443
REMARK  179  A    between atoms: _443  and  _444
REMARK  180  A    between atoms: _447  and  _449
REMARK  181  A    between atoms: _449  and  _450
REMARK  182  A    between atoms: _449  and  _452
REMARK  183  A    between atoms: _452  and  _453
REMARK  184  A    between atoms: _455  and  _457
REMARK  185  A    between atoms: _457  and  _458
REMARK  186  A    between atoms: _460  and  _462
REMARK  187  A    between atoms: _462  and  _463
REMARK  188  A    between atoms: _462  and  _465
REMARK  189  A    between atoms: _465  and  _466
REMARK  190  A    between atoms: _468  and  _470
REMARK  191  A    between atoms: _470  and  _471
REMARK  192  A    between atoms: _474  and  _476
REMARK  193  A    between atoms: _476  and  _477
REMARK  194  A    between atoms: _476  and  _479
REMARK  195  A    between atoms: _479  and  _480
REMARK  196  A    between atoms: _483  and  _485
REMARK  197  A    between atoms: _485  and  _486
REMARK  198  A    between atoms: _485  and  _488
REMARK  199  A    between atoms: _491  and  _493
REMARK  200  A    between atoms: _493  and  _494
REMARK  201  A    between atoms: _493  and  _496
REMARK  202  A    between atoms: _496  and  _497
REMARK  203  A    between atoms: _497  and  _498
REMARK  204  A    between atoms: _498  and  _499
REMARK  205  A    between atoms: _499  and  _500
REMARK  206  A    between atoms: _505  and  _506
REMARK                            x       y       z     vdW  Elec       q    Type
REMARK                         _______ _______ _______ _____ _____    ______ ____
ROOT
ATOM      1  O   HOH     1      54.556  31.617   6.916  0.00  0.00    +0.000 OA
ENDROOT
TORSDOF 0
REMARK  Name = ../refined-set-2016/1tjp/1tjp_pocket.pdb
REMARK  206 active torsions:
REMARK  status: ('A' for Active; 'I' for Inactive)
REMARK    1  A    between atoms: _1  and  _3
REMARK    2  A    between atoms: _3  and  _4
REMARK    3  A    between atoms: _3  and  _6
REMARK    4  A    between atoms: _10  and  _11
REMARK    5  A    between atoms: _16  and  _18
REMARK    6  A    between atoms: _18  and  _19
REMARK    7  A    between atoms: _18  and  _21
REMARK    8  A    between atoms: _21  and  _22
REMARK    9  A    between atoms: _28  and  _30
REMARK   10  A    between atoms: _30  and  _31
REMARK   11  A    between atoms: _30  and  _33
REMARK   12  A    between atoms: _36  and  _38
REMARK   13  A    between atoms: _38  and  _39
REMARK   14  A    between atoms: _38  and  _41
REMARK   15  A    between atoms: _41  and  _42
REMARK   16  A    between atoms: _45  and  _47
REMARK   17  A    between atoms: _47  and  _48
REMARK   18  A    between atoms: _47  and  _50
REMARK   19  A    between atoms: _50  and  _51
REMARK   20  A    between atoms: _51  and  _52
REMARK   21  A    between atoms: _55  and  _57
REMARK   22  A    between atoms: _57  and  _58
REMARK   23  A    between atoms: _57  and  _60
REMARK   24  A    between atoms: _60  and  _61
REMARK   25  A    between atoms: _64  and  _66
REMARK   26  A    between atoms: _66  and  _67
REMARK   27  A    between atoms: _70  and  _71
REMARK   28  A    between atoms: _76  and  _78
REMARK   29  A    between atoms: _78  and  _79
REMARK   30  A    between atoms: _78  and  _81
REMARK   31  A    between atoms: _81  and  _82
REMARK   32  A    between atoms: _85  and  _87
REMARK   33  A    between atoms: _87  and  _88
REMARK   34  A    between atoms: _91  and  _93
REMARK   35  A    between atoms: _93  and  _94
REMARK   36  A    between atoms: _93  and  _96
REMARK   37  A    between atoms: _96  and  _97
REMARK   38  A    between atoms: _100  and  _102
REMARK   39  A    between atoms: _102  and  _103
REMARK   40  A    between atoms: _105  and  _107
REMARK   41  A    between atoms: _107  and  _108
REMARK   42  A    between atoms: _107  and  _110
REMARK   43  A    between atoms: _110  and  _111
REMARK   44  A    between atoms: _114  and  _116
REMARK   45  A    between atoms: _116  and  _117
REMARK   46  A    between atoms: _116  and  _119
REMARK   47  A    between atoms: _119  and  _120
REMARK   48  A    between atoms: _123  and  _125
REMARK   49  A    between atoms: _125  and  _126
REMARK   50  A    between atoms: _125  and  _128
REMARK   51  A    between atoms: _128  and  _129
REMARK   52  A    between atoms: _129  and  _130
REMARK   53  A    between atoms: _135  and  _137
REMARK   54  A    between atoms: _137  and  _138
REMARK   55  A    between atoms: _137  and  _140
REMARK   56  A    between atoms: _140  and  _141
REMARK   57  A    between atoms: _146  and  _148
REMARK   58  A    between atoms: _148  and  _149
REMARK   59  A    between atoms: _148  and  _151
REMARK   60  A    between atoms: _151  and  _152
REMARK   61  A    between atoms: _155  and  _157
REMARK   62  A    between atoms: _157  and  _158
REMARK   63  A    between atoms: _157  and  _160
REMARK   64  A    between atoms: _160  and  _161
REMARK   65  A    between atoms: _164  and  _166
REMARK   66  A    between atoms: _166  and  _167
REMARK   67  A    between atoms: _166  and  _169
REMARK   68  A    between atoms: _169  and  _170
REMARK   69  A    between atoms: _170  and  _171
REMARK   70  A    between atoms: _173  and  _175
REMARK   71  A    between atoms: _175  and  _176
REMARK   72  A    between atoms: _175  and  _178
REMARK   73  A    between atoms: _178  and  _179
REMARK   74  A    between atoms: _184  and  _185
REMARK   75  A    between atoms: _187  and  _189
REMARK   76  A    between atoms: _189  and  _190
REMARK   77  A    between atoms: _189  and  _192
REMARK   78  A    between atoms: _192  and  _193
REMARK   79  A    between atoms: _196  and  _198
REMARK   80  A    between atoms: _198  and  _199
REMARK   81  A    between atoms: _198  and  _201
REMARK   82  A    between atoms: _204  and  _206
REMARK   83  A    between atoms: _206  and  _207
REMARK   84  A    between atoms: _210  and  _212
REMARK   85  A    between atoms: _212  and  _213
REMARK   86  A    between atoms: _212  and  _215
REMARK   87  A    between atoms: _215  and  _216
REMARK   88  A    between atoms: _219  and  _221
REMARK   89  A    between atoms: _221  and  _222
REMARK   90  A    between atoms: _221  and  _224
REMARK   91  A    between atoms: _224  and  _225
REMARK   92  A    between atoms: _228  and  _230
REMARK   93  A    between atoms: _230  and  _231
REMARK   94  A    between atoms: _230  and  _233
REMARK   95  A    between atoms: _233  and  _234
REMARK   96  A    between atoms: _239  and  _240
REMARK   97  A    between atoms: _242  and  _244
REMARK   98  A    between atoms: _244  and  _245
REMARK   99  A    between atoms: _244  and  _247
REMARK  100  A    between atoms: _247  and  _248
REMARK  101  A    between atoms: _253  and  _254
REMARK  102  A    between atoms: _256  and  _258
REMARK  103  A    between atoms: _258  and  _259
REMARK  104  A    between atoms: _258  and  _261
REMARK  105  A    between atoms: _261  and  _262
REMARK  106  A    between atoms: _265  and  _267
REMARK  107  A    between atoms: _267  and  _268
REMARK  108  A    between atoms: _267  and  _270
REMARK  109  A    between atoms: _270  and  _271
REMARK  110  A    between atoms: _273  and  _275
REMARK  111  A    between atoms: _275  and  _276
REMARK  112  A    between atoms: _275  and  _278
REMARK  113  A    between atoms: _278  and  _279
REMARK  114  A    between atoms: _279  and  _280
REMARK  115  A    between atoms: _280  and  _281
REMARK  116  A    between atoms: _290  and  _292
REMARK  117  A    between atoms: _292  and  _293
REMARK  118  A    between atoms: _295  and  _297
REMARK  119  A    between atoms: _297  and  _298
REMARK  120  A    between atoms: _297  and  _300
REMARK  121  A    between atoms: _303  and  _305
REMARK  122  A    between atoms: _305  and  _306
REMARK  123  A    between atoms: _305  and  _308
REMARK  124  A    between atoms: _308  and  _309
REMARK  125  A    between atoms: _312  and  _314
REMARK  126  A    between atoms: _314  and  _315
REMARK  127  A    between atoms: _317  and  _319
REMARK  128  A    between atoms: _319  and  _320
REMARK  129  A    between atoms: _323  and  _325
REMARK  130  A    between atoms: _325  and  _326
REMARK  131  A    between atoms: _325  and  _328
REMARK  132  A    between atoms: _328  and  _329
REMARK  133  A    between atoms: _329  and  _330
REMARK  134  A    between atoms: _333  and  _335
REMARK  135  A    between atoms: _335  and  _336
REMARK  136  A    between atoms: _335  and  _338
REMARK  137  A    between atoms: _338  and  _339
REMARK  138  A    between atoms: _344  and  _346
REMARK  139  A    between atoms: _346  and  _347
REMARK  140  A    between atoms: _346  and  _349
REMARK  141  A    between atoms: _349  and  _350
REMARK  142  A    between atoms: _350  and  _351
REMARK  143  A    between atoms: _351  and  _352
REMARK  144  A    between atoms: _361  and  _363
REMARK  145  A    between atoms: _363  and  _364
REMARK  146  A    between atoms: _366  and  _368
REMARK  147  A    between atoms: _368  and  _369
REMARK  148  A    between atoms: _368  and  _371
REMARK  149  A    between atoms: _371  and  _372
REMARK  150  A    between atoms: _375  and  _377
REMARK  151  A    between atoms: _377  and  _378
REMARK  152  A    between atoms: _377  and  _380
REMARK  153  A    between atoms: _380  and  _381
REMARK  154  A    between atoms: _381  and  _382
REMARK  155  A    between atoms: _387  and  _389
REMARK  156  A    between atoms: _389  and  _390
REMARK  157  A    between atoms: _392  and  _394
REMARK  158  A    between atoms: _394  and  _395
REMARK  159  A    between atoms: _394  and  _397
REMARK  160  A    between atoms: _397  and  _398
REMARK  161  A    between atoms: _404  and  _406
REMARK  162  A    between atoms: _406  and  _407
REMARK  163  A    between atoms: _409  and  _411
REMARK  164  A    between atoms: _411  and  _412
REMARK  165  A    between atoms: _411  and  _414
REMARK  166  A    between atoms: _414  and  _415
REMARK  167  A    between atoms: _418  and  _420
REMARK  168  A    between atoms: _420  and  _421
REMARK  169  A    between atoms: _420  and  _423
REMARK  170  A    between atoms: _423  and  _424
REMARK  171  A    between atoms: _426  and  _428
REMARK  172  A    between atoms: _428  and  _429
REMARK  173  A    between atoms: _428  and  _431
REMARK  174  A    between atoms: _431  and  _432
REMARK  175  A    between atoms: _432  and  _433
REMARK  176  A    between atoms: _438  and  _440
REMARK  177  A    between atoms: _440  and  _441
REMARK  178  A    between atoms: _440  and  _443
REMARK  179  A    between atoms: _443  and  _444
REMARK  180  A    between atoms: _447  and  _449
REMARK  181  A    between atoms: _449  and  _450
REMARK  182  A    between atoms: _449  and  _452
REMARK  183  A    between atoms: _452  and  _453
REMARK  184  A    between atoms: _455  and  _457
REMARK  185  A    between atoms: _457  and  _458
REMARK  186  A    between atoms: _460  and  _462
REMARK  187  A    between atoms: _462  and  _463
REMARK  188  A    between atoms: _462  and  _465
REMARK  189  A    between atoms: _465  and  _466
REMARK  190  A    between atoms: _468  and  _470
REMARK  191  A    between atoms: _470  and  _471
REMARK  192  A    between atoms: _474  and  _476
REMARK  193  A    between atoms: _476  and  _477
REMARK  194  A    between atoms: _476  and  _479
REMARK  195  A    between atoms: _479  and  _480
REMARK  196  A    between atoms: _483  and  _485
REMARK  197  A    between atoms: _485  and  _486
REMARK  198  A    between atoms: _485  and  _488
REMARK  199  A    between atoms: _491  and  _493
REMARK  200  A    between atoms: _493  and  _494
REMARK  201  A    between atoms: _493  and  _496
REMARK  202  A    between atoms: _496  and  _497
REMARK  203  A    between atoms: _497  and  _498
REMARK  204  A    between atoms: _498  and  _499
REMARK  205  A    between atoms: _499  and  _500
REMARK  206  A    between atoms: _505  and  _506
REMARK                            x       y       z     vdW  Elec       q    Type
REMARK                         _______ _______ _______ _____ _____    ______ ____
ROOT
ATOM      1  O   HOH     1      50.956  19.841   8.372  0.00  0.00    +0.000 OA
ENDROOT
TORSDOF 0
REMARK  Name = ../refined-set-2016/1tjp/1tjp_pocket.pdb
REMARK  206 active torsions:
REMARK  status: ('A' for Active; 'I' for Inactive)
REMARK    1  A    between atoms: _1  and  _3
REMARK    2  A    between atoms: _3  and  _4
REMARK    3  A    between atoms: _3  and  _6
REMARK    4  A    between atoms: _10  and  _11
REMARK    5  A    between atoms: _16  and  _18
REMARK    6  A    between atoms: _18  and  _19
REMARK    7  A    between atoms: _18  and  _21
REMARK    8  A    between atoms: _21  and  _22
REMARK    9  A    between atoms: _28  and  _30
REMARK   10  A    between atoms: _30  and  _31
REMARK   11  A    between atoms: _30  and  _33
REMARK   12  A    between atoms: _36  and  _38
REMARK   13  A    between atoms: _38  and  _39
REMARK   14  A    between atoms: _38  and  _41
REMARK   15  A    between atoms: _41  and  _42
REMARK   16  A    between atoms: _45  and  _47
REMARK   17  A    between atoms: _47  and  _48
REMARK   18  A    between atoms: _47  and  _50
REMARK   19  A    between atoms: _50  and  _51
REMARK   20  A    between atoms: _51  and  _52
REMARK   21  A    between atoms: _55  and  _57
REMARK   22  A    between atoms: _57  and  _58
REMARK   23  A    between atoms: _57  and  _60
REMARK   24  A    between atoms: _60  and  _61
REMARK   25  A    between atoms: _64  and  _66
REMARK   26  A    between atoms: _66  and  _67
REMARK   27  A    between atoms: _70  and  _71
REMARK   28  A    between atoms: _76  and  _78
REMARK   29  A    between atoms: _78  and  _79
REMARK   30  A    between atoms: _78  and  _81
REMARK   31  A    between atoms: _81  and  _82
REMARK   32  A    between atoms: _85  and  _87
REMARK   33  A    between atoms: _87  and  _88
REMARK   34  A    between atoms: _91  and  _93
REMARK   35  A    between atoms: _93  and  _94
REMARK   36  A    between atoms: _93  and  _96
REMARK   37  A    between atoms: _96  and  _97
REMARK   38  A    between atoms: _100  and  _102
REMARK   39  A    between atoms: _102  and  _103
REMARK   40  A    between atoms: _105  and  _107
REMARK   41  A    between atoms: _107  and  _108
REMARK   42  A    between atoms: _107  and  _110
REMARK   43  A    between atoms: _110  and  _111
REMARK   44  A    between atoms: _114  and  _116
REMARK   45  A    between atoms: _116  and  _117
REMARK   46  A    between atoms: _116  and  _119
REMARK   47  A    between atoms: _119  and  _120
REMARK   48  A    between atoms: _123  and  _125
REMARK   49  A    between atoms: _125  and  _126
REMARK   50  A    between atoms: _125  and  _128
REMARK   51  A    between atoms: _128  and  _129
REMARK   52  A    between atoms: _129  and  _130
REMARK   53  A    between atoms: _135  and  _137
REMARK   54  A    between atoms: _137  and  _138
REMARK   55  A    between atoms: _137  and  _140
REMARK   56  A    between atoms: _140  and  _141
REMARK   57  A    between atoms: _146  and  _148
REMARK   58  A    between atoms: _148  and  _149
REMARK   59  A    between atoms: _148  and  _151
REMARK   60  A    between atoms: _151  and  _152
REMARK   61  A    between atoms: _155  and  _157
REMARK   62  A    between atoms: _157  and  _158
REMARK   63  A    between atoms: _157  and  _160
REMARK   64  A    between atoms: _160  and  _161
REMARK   65  A    between atoms: _164  and  _166
REMARK   66  A    between atoms: _166  and  _167
REMARK   67  A    between atoms: _166  and  _169
REMARK   68  A    between atoms: _169  and  _170
REMARK   69  A    between atoms: _170  and  _171
REMARK   70  A    between atoms: _173  and  _175
REMARK   71  A    between atoms: _175  and  _176
REMARK   72  A    between atoms: _175  and  _178
REMARK   73  A    between atoms: _178  and  _179
REMARK   74  A    between atoms: _184  and  _185
REMARK   75  A    between atoms: _187  and  _189
REMARK   76  A    between atoms: _189  and  _190
REMARK   77  A    between atoms: _189  and  _192
REMARK   78  A    between atoms: _192  and  _193
REMARK   79  A    between atoms: _196  and  _198
REMARK   80  A    between atoms: _198  and  _199
REMARK   81  A    between atoms: _198  and  _201
REMARK   82  A    between atoms: _204  and  _206
REMARK   83  A    between atoms: _206  and  _207
REMARK   84  A    between atoms: _210  and  _212
REMARK   85  A    between atoms: _212  and  _213
REMARK   86  A    between atoms: _212  and  _215
REMARK   87  A    between atoms: _215  and  _216
REMARK   88  A    between atoms: _219  and  _221
REMARK   89  A    between atoms: _221  and  _222
REMARK   90  A    between atoms: _221  and  _224
REMARK   91  A    between atoms: _224  and  _225
REMARK   92  A    between atoms: _228  and  _230
REMARK   93  A    between atoms: _230  and  _231
REMARK   94  A    between atoms: _230  and  _233
REMARK   95  A    between atoms: _233  and  _234
REMARK   96  A    between atoms: _239  and  _240
REMARK   97  A    between atoms: _242  and  _244
REMARK   98  A    between atoms: _244  and  _245
REMARK   99  A    between atoms: _244  and  _247
REMARK  100  A    between atoms: _247  and  _248
REMARK  101  A    between atoms: _253  and  _254
REMARK  102  A    between atoms: _256  and  _258
REMARK  103  A    between atoms: _258  and  _259
REMARK  104  A    between atoms: _258  and  _261
REMARK  105  A    between atoms: _261  and  _262
REMARK  106  A    between atoms: _265  and  _267
REMARK  107  A    between atoms: _267  and  _268
REMARK  108  A    between atoms: _267  and  _270
REMARK  109  A    between atoms: _270  and  _271
REMARK  110  A    between atoms: _273  and  _275
REMARK  111  A    between atoms: _275  and  _276
REMARK  112  A    between atoms: _275  and  _278
REMARK  113  A    between atoms: _278  and  _279
REMARK  114  A    between atoms: _279  and  _280
REMARK  115  A    between atoms: _280  and  _281
REMARK  116  A    between atoms: _290  and  _292
REMARK  117  A    between atoms: _292  and  _293
REMARK  118  A    between atoms: _295  and  _297
REMARK  119  A    between atoms: _297  and  _298
REMARK  120  A    between atoms: _297  and  _300
REMARK  121  A    between atoms: _303  and  _305
REMARK  122  A    between atoms: _305  and  _306
REMARK  123  A    between atoms: _305  and  _308
REMARK  124  A    between atoms: _308  and  _309
REMARK  125  A    between atoms: _312  and  _314
REMARK  126  A    between atoms: _314  and  _315
REMARK  127  A    between atoms: _317  and  _319
REMARK  128  A    between atoms: _319  and  _320
REMARK  129  A    between atoms: _323  and  _325
REMARK  130  A    between atoms: _325  and  _326
REMARK  131  A    between atoms: _325  and  _328
REMARK  132  A    between atoms: _328  and  _329
REMARK  133  A    between atoms: _329  and  _330
REMARK  134  A    between atoms: _333  and  _335
REMARK  135  A    between atoms: _335  and  _336
REMARK  136  A    between atoms: _335  and  _338
REMARK  137  A    between atoms: _338  and  _339
REMARK  138  A    between atoms: _344  and  _346
REMARK  139  A    between atoms: _346  and  _347
REMARK  140  A    between atoms: _346  and  _349
REMARK  141  A    between atoms: _349  and  _350
REMARK  142  A    between atoms: _350  and  _351
REMARK  143  A    between atoms: _351  and  _352
REMARK  144  A    between atoms: _361  and  _363
REMARK  145  A    between atoms: _363  and  _364
REMARK  146  A    between atoms: _366  and  _368
REMARK  147  A    between atoms: _368  and  _369
REMARK  148  A    between atoms: _368  and  _371
REMARK  149  A    between atoms: _371  and  _372
REMARK  150  A    between atoms: _375  and  _377
REMARK  151  A    between atoms: _377  and  _378
REMARK  152  A    between atoms: _377  and  _380
REMARK  153  A    between atoms: _380  and  _381
REMARK  154  A    between atoms: _381  and  _382
REMARK  155  A    between atoms: _387  and  _389
REMARK  156  A    between atoms: _389  and  _390
REMARK  157  A    between atoms: _392  and  _394
REMARK  158  A    between atoms: _394  and  _395
REMARK  159  A    between atoms: _394  and  _397
REMARK  160  A    between atoms: _397  and  _398
REMARK  161  A    between atoms: _404  and  _406
REMARK  162  A    between atoms: _406  and  _407
REMARK  163  A    between atoms: _409  and  _411
REMARK  164  A    between atoms: _411  and  _412
REMARK  165  A    between atoms: _411  and  _414
REMARK  166  A    between atoms: _414  and  _415
REMARK  167  A    between atoms: _418  and  _420
REMARK  168  A    between atoms: _420  and  _421
REMARK  169  A    between atoms: _420  and  _423
REMARK  170  A    between atoms: _423  and  _424
REMARK  171  A    between atoms: _426  and  _428
REMARK  172  A    between atoms: _428  and  _429
REMARK  173  A    between atoms: _428  and  _431
REMARK  174  A    between atoms: _431  and  _432
REMARK  175  A    between atoms: _432  and  _433
REMARK  176  A    between atoms: _438  and  _440
REMARK  177  A    between atoms: _440  and  _441
REMARK  178  A    between atoms: _440  and  _443
REMARK  179  A    between atoms: _443  and  _444
REMARK  180  A    between atoms: _447  and  _449
REMARK  181  A    between atoms: _449  and  _450
REMARK  182  A    between atoms: _449  and  _452
REMARK  183  A    between atoms: _452  and  _453
REMARK  184  A    between atoms: _455  and  _457
REMARK  185  A    between atoms: _457  and  _458
REMARK  186  A    between atoms: _460  and  _462
REMARK  187  A    between atoms: _462  and  _463
REMARK  188  A    between atoms: _462  and  _465
REMARK  189  A    between atoms: _465  and  _466
REMARK  190  A    between atoms: _468  and  _470
REMARK  191  A    between atoms: _470  and  _471
REMARK  192  A    between atoms: _474  and  _476
REMARK  193  A    between atoms: _476  and  _477
REMARK  194  A    between atoms: _476  and  _479
REMARK  195  A    between atoms: _479  and  _480
REMARK  196  A    between atoms: _483  and  _485
REMARK  197  A    between atoms: _485  and  _486
REMARK  198  A    between atoms: _485  and  _488
REMARK  199  A    between atoms: _491  and  _493
REMARK  200  A    between atoms: _493  and  _494
REMARK  201  A    between atoms: _493  and  _496
REMARK  202  A    between atoms: _496  and  _497
REMARK  203  A    between atoms: _497  and  _498
REMARK  204  A    between atoms: _498  and  _499
REMARK  205  A    between atoms: _499  and  _500
REMARK  206  A    between atoms: _505  and  _506
REMARK                            x       y       z     vdW  Elec       q    Type
REMARK                         _______ _______ _______ _____ _____    ______ ____
ROOT
ATOM      1  O   HOH     1      43.598  26.248   4.410  0.00  0.00    +0.000 OA
ENDROOT
TORSDOF 0
REMARK  Name = ../refined-set-2016/1tjp/1tjp_pocket.pdb
REMARK  206 active torsions:
REMARK  status: ('A' for Active; 'I' for Inactive)
REMARK    1  A    between atoms: _1  and  _3
REMARK    2  A    between atoms: _3  and  _4
REMARK    3  A    between atoms: _3  and  _6
REMARK    4  A    between atoms: _10  and  _11
REMARK    5  A    between atoms: _16  and  _18
REMARK    6  A    between atoms: _18  and  _19
REMARK    7  A    between atoms: _18  and  _21
REMARK    8  A    between atoms: _21  and  _22
REMARK    9  A    between atoms: _28  and  _30
REMARK   10  A    between atoms: _30  and  _31
REMARK   11  A    between atoms: _30  and  _33
REMARK   12  A    between atoms: _36  and  _38
REMARK   13  A    between atoms: _38  and  _39
REMARK   14  A    between atoms: _38  and  _41
REMARK   15  A    between atoms: _41  and  _42
REMARK   16  A    between atoms: _45  and  _47
REMARK   17  A    between atoms: _47  and  _48
REMARK   18  A    between atoms: _47  and  _50
REMARK   19  A    between atoms: _50  and  _51
REMARK   20  A    between atoms: _51  and  _52
REMARK   21  A    between atoms: _55  and  _57
REMARK   22  A    between atoms: _57  and  _58
REMARK   23  A    between atoms: _57  and  _60
REMARK   24  A    between atoms: _60  and  _61
REMARK   25  A    between atoms: _64  and  _66
REMARK   26  A    between atoms: _66  and  _67
REMARK   27  A    between atoms: _70  and  _71
REMARK   28  A    between atoms: _76  and  _78
REMARK   29  A    between atoms: _78  and  _79
REMARK   30  A    between atoms: _78  and  _81
REMARK   31  A    between atoms: _81  and  _82
REMARK   32  A    between atoms: _85  and  _87
REMARK   33  A    between atoms: _87  and  _88
REMARK   34  A    between atoms: _91  and  _93
REMARK   35  A    between atoms: _93  and  _94
REMARK   36  A    between atoms: _93  and  _96
REMARK   37  A    between atoms: _96  and  _97
REMARK   38  A    between atoms: _100  and  _102
REMARK   39  A    between atoms: _102  and  _103
REMARK   40  A    between atoms: _105  and  _107
REMARK   41  A    between atoms: _107  and  _108
REMARK   42  A    between atoms: _107  and  _110
REMARK   43  A    between atoms: _110  and  _111
REMARK   44  A    between atoms: _114  and  _116
REMARK   45  A    between atoms: _116  and  _117
REMARK   46  A    between atoms: _116  and  _119
REMARK   47  A    between atoms: _119  and  _120
REMARK   48  A    between atoms: _123  and  _125
REMARK   49  A    between atoms: _125  and  _126
REMARK   50  A    between atoms: _125  and  _128
REMARK   51  A    between atoms: _128  and  _129
REMARK   52  A    between atoms: _129  and  _130
REMARK   53  A    between atoms: _135  and  _137
REMARK   54  A    between atoms: _137  and  _138
REMARK   55  A    between atoms: _137  and  _140
REMARK   56  A    between atoms: _140  and  _141
REMARK   57  A    between atoms: _146  and  _148
REMARK   58  A    between atoms: _148  and  _149
REMARK   59  A    between atoms: _148  and  _151
REMARK   60  A    between atoms: _151  and  _152
REMARK   61  A    between atoms: _155  and  _157
REMARK   62  A    between atoms: _157  and  _158
REMARK   63  A    between atoms: _157  and  _160
REMARK   64  A    between atoms: _160  and  _161
REMARK   65  A    between atoms: _164  and  _166
REMARK   66  A    between atoms: _166  and  _167
REMARK   67  A    between atoms: _166  and  _169
REMARK   68  A    between atoms: _169  and  _170
REMARK   69  A    between atoms: _170  and  _171
REMARK   70  A    between atoms: _173  and  _175
REMARK   71  A    between atoms: _175  and  _176
REMARK   72  A    between atoms: _175  and  _178
REMARK   73  A    between atoms: _178  and  _179
REMARK   74  A    between atoms: _184  and  _185
REMARK   75  A    between atoms: _187  and  _189
REMARK   76  A    between atoms: _189  and  _190
REMARK   77  A    between atoms: _189  and  _192
REMARK   78  A    between atoms: _192  and  _193
REMARK   79  A    between atoms: _196  and  _198
REMARK   80  A    between atoms: _198  and  _199
REMARK   81  A    between atoms: _198  and  _201
REMARK   82  A    between atoms: _204  and  _206
REMARK   83  A    between atoms: _206  and  _207
REMARK   84  A    between atoms: _210  and  _212
REMARK   85  A    between atoms: _212  and  _213
REMARK   86  A    between atoms: _212  and  _215
REMARK   87  A    between atoms: _215  and  _216
REMARK   88  A    between atoms: _219  and  _221
REMARK   89  A    between atoms: _221  and  _222
REMARK   90  A    between atoms: _221  and  _224
REMARK   91  A    between atoms: _224  and  _225
REMARK   92  A    between atoms: _228  and  _230
REMARK   93  A    between atoms: _230  and  _231
REMARK   94  A    between atoms: _230  and  _233
REMARK   95  A    between atoms: _233  and  _234
REMARK   96  A    between atoms: _239  and  _240
REMARK   97  A    between atoms: _242  and  _244
REMARK   98  A    between atoms: _244  and  _245
REMARK   99  A    between atoms: _244  and  _247
REMARK  100  A    between atoms: _247  and  _248
REMARK  101  A    between atoms: _253  and  _254
REMARK  102  A    between atoms: _256  and  _258
REMARK  103  A    between atoms: _258  and  _259
REMARK  104  A    between atoms: _258  and  _261
REMARK  105  A    between atoms: _261  and  _262
REMARK  106  A    between atoms: _265  and  _267
REMARK  107  A    between atoms: _267  and  _268
REMARK  108  A    between atoms: _267  and  _270
REMARK  109  A    between atoms: _270  and  _271
REMARK  110  A    between atoms: _273  and  _275
REMARK  111  A    between atoms: _275  and  _276
REMARK  112  A    between atoms: _275  and  _278
REMARK  113  A    between atoms: _278  and  _279
REMARK  114  A    between atoms: _279  and  _280
REMARK  115  A    between atoms: _280  and  _281
REMARK  116  A    between atoms: _290  and  _292
REMARK  117  A    between atoms: _292  and  _293
REMARK  118  A    between atoms: _295  and  _297
REMARK  119  A    between atoms: _297  and  _298
REMARK  120  A    between atoms: _297  and  _300
REMARK  121  A    between atoms: _303  and  _305
REMARK  122  A    between atoms: _305  and  _306
REMARK  123  A    between atoms: _305  and  _308
REMARK  124  A    between atoms: _308  and  _309
REMARK  125  A    between atoms: _312  and  _314
REMARK  126  A    between atoms: _314  and  _315
REMARK  127  A    between atoms: _317  and  _319
REMARK  128  A    between atoms: _319  and  _320
REMARK  129  A    between atoms: _323  and  _325
REMARK  130  A    between atoms: _325  and  _326
REMARK  131  A    between atoms: _325  and  _328
REMARK  132  A    between atoms: _328  and  _329
REMARK  133  A    between atoms: _329  and  _330
REMARK  134  A    between atoms: _333  and  _335
REMARK  135  A    between atoms: _335  and  _336
REMARK  136  A    between atoms: _335  and  _338
REMARK  137  A    between atoms: _338  and  _339
REMARK  138  A    between atoms: _344  and  _346
REMARK  139  A    between atoms: _346  and  _347
REMARK  140  A    between atoms: _346  and  _349
REMARK  141  A    between atoms: _349  and  _350
REMARK  142  A    between atoms: _350  and  _351
REMARK  143  A    between atoms: _351  and  _352
REMARK  144  A    between atoms: _361  and  _363
REMARK  145  A    between atoms: _363  and  _364
REMARK  146  A    between atoms: _366  and  _368
REMARK  147  A    between atoms: _368  and  _369
REMARK  148  A    between atoms: _368  and  _371
REMARK  149  A    between atoms: _371  and  _372
REMARK  150  A    between atoms: _375  and  _377
REMARK  151  A    between atoms: _377  and  _378
REMARK  152  A    between atoms: _377  and  _380
REMARK  153  A    between atoms: _380  and  _381
REMARK  154  A    between atoms: _381  and  _382
REMARK  155  A    between atoms: _387  and  _389
REMARK  156  A    between atoms: _389  and  _390
REMARK  157  A    between atoms: _392  and  _394
REMARK  158  A    between atoms: _394  and  _395
REMARK  159  A    between atoms: _394  and  _397
REMARK  160  A    between atoms: _397  and  _398
REMARK  161  A    between atoms: _404  and  _406
REMARK  162  A    between atoms: _406  and  _407
REMARK  163  A    between atoms: _409  and  _411
REMARK  164  A    between atoms: _411  and  _412
REMARK  165  A    between atoms: _411  and  _414
REMARK  166  A    between atoms: _414  and  _415
REMARK  167  A    between atoms: _418  and  _420
REMARK  168  A    between atoms: _420  and  _421
REMARK  169  A    between atoms: _420  and  _423
REMARK  170  A    between atoms: _423  and  _424
REMARK  171  A    between atoms: _426  and  _428
REMARK  172  A    between atoms: _428  and  _429
REMARK  173  A    between atoms: _428  and  _431
REMARK  174  A    between atoms: _431  and  _432
REMARK  175  A    between atoms: _432  and  _433
REMARK  176  A    between atoms: _438  and  _440
REMARK  177  A    between atoms: _440  and  _441
REMARK  178  A    between atoms: _440  and  _443
REMARK  179  A    between atoms: _443  and  _444
REMARK  180  A    between atoms: _447  and  _449
REMARK  181  A    between atoms: _449  and  _450
REMARK  182  A    between atoms: _449  and  _452
REMARK  183  A    between atoms: _452  and  _453
REMARK  184  A    between atoms: _455  and  _457
REMARK  185  A    between atoms: _457  and  _458
REMARK  186  A    between atoms: _460  and  _462
REMARK  187  A    between atoms: _462  and  _463
REMARK  188  A    between atoms: _462  and  _465
REMARK  189  A    between atoms: _465  and  _466
REMARK  190  A    between atoms: _468  and  _470
REMARK  191  A    between atoms: _470  and  _471
REMARK  192  A    between atoms: _474  and  _476
REMARK  193  A    between atoms: _476  and  _477
REMARK  194  A    between atoms: _476  and  _479
REMARK  195  A    between atoms: _479  and  _480
REMARK  196  A    between atoms: _483  and  _485
REMARK  197  A    between atoms: _485  and  _486
REMARK  198  A    between atoms: _485  and  _488
REMARK  199  A    between atoms: _491  and  _493
REMARK  200  A    between atoms: _493  and  _494
REMARK  201  A    between atoms: _493  and  _496
REMARK  202  A    between atoms: _496  and  _497
REMARK  203  A    between atoms: _497  and  _498
REMARK  204  A    between atoms: _498  and  _499
REMARK  205  A    between atoms: _499  and  _500
REMARK  206  A    between atoms: _505  and  _506
REMARK                            x       y       z     vdW  Elec       q    Type
REMARK                         _______ _______ _______ _____ _____    ______ ____
ROOT
ATOM      1  O   HOH     1      49.479  16.650  17.635  0.00  0.00    +0.000 OA
ENDROOT
TORSDOF 0
REMARK  Name = ../refined-set-2016/1tjp/1tjp_pocket.pdb
REMARK  206 active torsions:
REMARK  status: ('A' for Active; 'I' for Inactive)
REMARK    1  A    between atoms: _1  and  _3
REMARK    2  A    between atoms: _3  and  _4
REMARK    3  A    between atoms: _3  and  _6
REMARK    4  A    between atoms: _10  and  _11
REMARK    5  A    between atoms: _16  and  _18
REMARK    6  A    between atoms: _18  and  _19
REMARK    7  A    between atoms: _18  and  _21
REMARK    8  A    between atoms: _21  and  _22
REMARK    9  A    between atoms: _28  and  _30
REMARK   10  A    between atoms: _30  and  _31
REMARK   11  A    between atoms: _30  and  _33
REMARK   12  A    between atoms: _36  and  _38
REMARK   13  A    between atoms: _38  and  _39
REMARK   14  A    between atoms: _38  and  _41
REMARK   15  A    between atoms: _41  and  _42
REMARK   16  A    between atoms: _45  and  _47
REMARK   17  A    between atoms: _47  and  _48
REMARK   18  A    between atoms: _47  and  _50
REMARK   19  A    between atoms: _50  and  _51
REMARK   20  A    between atoms: _51  and  _52
REMARK   21  A    between atoms: _55  and  _57
REMARK   22  A    between atoms: _57  and  _58
REMARK   23  A    between atoms: _57  and  _60
REMARK   24  A    between atoms: _60  and  _61
REMARK   25  A    between atoms: _64  and  _66
REMARK   26  A    between atoms: _66  and  _67
REMARK   27  A    between atoms: _70  and  _71
REMARK   28  A    between atoms: _76  and  _78
REMARK   29  A    between atoms: _78  and  _79
REMARK   30  A    between atoms: _78  and  _81
REMARK   31  A    between atoms: _81  and  _82
REMARK   32  A    between atoms: _85  and  _87
REMARK   33  A    between atoms: _87  and  _88
REMARK   34  A    between atoms: _91  and  _93
REMARK   35  A    between atoms: _93  and  _94
REMARK   36  A    between atoms: _93  and  _96
REMARK   37  A    between atoms: _96  and  _97
REMARK   38  A    between atoms: _100  and  _102
REMARK   39  A    between atoms: _102  and  _103
REMARK   40  A    between atoms: _105  and  _107
REMARK   41  A    between atoms: _107  and  _108
REMARK   42  A    between atoms: _107  and  _110
REMARK   43  A    between atoms: _110  and  _111
REMARK   44  A    between atoms: _114  and  _116
REMARK   45  A    between atoms: _116  and  _117
REMARK   46  A    between atoms: _116  and  _119
REMARK   47  A    between atoms: _119  and  _120
REMARK   48  A    between atoms: _123  and  _125
REMARK   49  A    between atoms: _125  and  _126
REMARK   50  A    between atoms: _125  and  _128
REMARK   51  A    between atoms: _128  and  _129
REMARK   52  A    between atoms: _129  and  _130
REMARK   53  A    between atoms: _135  and  _137
REMARK   54  A    between atoms: _137  and  _138
REMARK   55  A    between atoms: _137  and  _140
REMARK   56  A    between atoms: _140  and  _141
REMARK   57  A    between atoms: _146  and  _148
REMARK   58  A    between atoms: _148  and  _149
REMARK   59  A    between atoms: _148  and  _151
REMARK   60  A    between atoms: _151  and  _152
REMARK   61  A    between atoms: _155  and  _157
REMARK   62  A    between atoms: _157  and  _158
REMARK   63  A    between atoms: _157  and  _160
REMARK   64  A    between atoms: _160  and  _161
REMARK   65  A    between atoms: _164  and  _166
REMARK   66  A    between atoms: _166  and  _167
REMARK   67  A    between atoms: _166  and  _169
REMARK   68  A    between atoms: _169  and  _170
REMARK   69  A    between atoms: _170  and  _171
REMARK   70  A    between atoms: _173  and  _175
REMARK   71  A    between atoms: _175  and  _176
REMARK   72  A    between atoms: _175  and  _178
REMARK   73  A    between atoms: _178  and  _179
REMARK   74  A    between atoms: _184  and  _185
REMARK   75  A    between atoms: _187  and  _189
REMARK   76  A    between atoms: _189  and  _190
REMARK   77  A    between atoms: _189  and  _192
REMARK   78  A    between atoms: _192  and  _193
REMARK   79  A    between atoms: _196  and  _198
REMARK   80  A    between atoms: _198  and  _199
REMARK   81  A    between atoms: _198  and  _201
REMARK   82  A    between atoms: _204  and  _206
REMARK   83  A    between atoms: _206  and  _207
REMARK   84  A    between atoms: _210  and  _212
REMARK   85  A    between atoms: _212  and  _213
REMARK   86  A    between atoms: _212  and  _215
REMARK   87  A    between atoms: _215  and  _216
REMARK   88  A    between atoms: _219  and  _221
REMARK   89  A    between atoms: _221  and  _222
REMARK   90  A    between atoms: _221  and  _224
REMARK   91  A    between atoms: _224  and  _225
REMARK   92  A    between atoms: _228  and  _230
REMARK   93  A    between atoms: _230  and  _231
REMARK   94  A    between atoms: _230  and  _233
REMARK   95  A    between atoms: _233  and  _234
REMARK   96  A    between atoms: _239  and  _240
REMARK   97  A    between atoms: _242  and  _244
REMARK   98  A    between atoms: _244  and  _245
REMARK   99  A    between atoms: _244  and  _247
REMARK  100  A    between atoms: _247  and  _248
REMARK  101  A    between atoms: _253  and  _254
REMARK  102  A    between atoms: _256  and  _258
REMARK  103  A    between atoms: _258  and  _259
REMARK  104  A    between atoms: _258  and  _261
REMARK  105  A    between atoms: _261  and  _262
REMARK  106  A    between atoms: _265  and  _267
REMARK  107  A    between atoms: _267  and  _268
REMARK  108  A    between atoms: _267  and  _270
REMARK  109  A    between atoms: _270  and  _271
REMARK  110  A    between atoms: _273  and  _275
REMARK  111  A    between atoms: _275  and  _276
REMARK  112  A    between atoms: _275  and  _278
REMARK  113  A    between atoms: _278  and  _279
REMARK  114  A    between atoms: _279  and  _280
REMARK  115  A    between atoms: _280  and  _281
REMARK  116  A    between atoms: _290  and  _292
REMARK  117  A    between atoms: _292  and  _293
REMARK  118  A    between atoms: _295  and  _297
REMARK  119  A    between atoms: _297  and  _298
REMARK  120  A    between atoms: _297  and  _300
REMARK  121  A    between atoms: _303  and  _305
REMARK  122  A    between atoms: _305  and  _306
REMARK  123  A    between atoms: _305  and  _308
REMARK  124  A    between atoms: _308  and  _309
REMARK  125  A    between atoms: _312  and  _314
REMARK  126  A    between atoms: _314  and  _315
REMARK  127  A    between atoms: _317  and  _319
REMARK  128  A    between atoms: _319  and  _320
REMARK  129  A    between atoms: _323  and  _325
REMARK  130  A    between atoms: _325  and  _326
REMARK  131  A    between atoms: _325  and  _328
REMARK  132  A    between atoms: _328  and  _329
REMARK  133  A    between atoms: _329  and  _330
REMARK  134  A    between atoms: _333  and  _335
REMARK  135  A    between atoms: _335  and  _336
REMARK  136  A    between atoms: _335  and  _338
REMARK  137  A    between atoms: _338  and  _339
REMARK  138  A    between atoms: _344  and  _346
REMARK  139  A    between atoms: _346  and  _347
REMARK  140  A    between atoms: _346  and  _349
REMARK  141  A    between atoms: _349  and  _350
REMARK  142  A    between atoms: _350  and  _351
REMARK  143  A    between atoms: _351  and  _352
REMARK  144  A    between atoms: _361  and  _363
REMARK  145  A    between atoms: _363  and  _364
REMARK  146  A    between atoms: _366  and  _368
REMARK  147  A    between atoms: _368  and  _369
REMARK  148  A    between atoms: _368  and  _371
REMARK  149  A    between atoms: _371  and  _372
REMARK  150  A    between atoms: _375  and  _377
REMARK  151  A    between atoms: _377  and  _378
REMARK  152  A    between atoms: _377  and  _380
REMARK  153  A    between atoms: _380  and  _381
REMARK  154  A    between atoms: _381  and  _382
REMARK  155  A    between atoms: _387  and  _389
REMARK  156  A    between atoms: _389  and  _390
REMARK  157  A    between atoms: _392  and  _394
REMARK  158  A    between atoms: _394  and  _395
REMARK  159  A    between atoms: _394  and  _397
REMARK  160  A    between atoms: _397  and  _398
REMARK  161  A    between atoms: _404  and  _406
REMARK  162  A    between atoms: _406  and  _407
REMARK  163  A    between atoms: _409  and  _411
REMARK  164  A    between atoms: _411  and  _412
REMARK  165  A    between atoms: _411  and  _414
REMARK  166  A    between atoms: _414  and  _415
REMARK  167  A    between atoms: _418  and  _420
REMARK  168  A    between atoms: _420  and  _421
REMARK  169  A    between atoms: _420  and  _423
REMARK  170  A    between atoms: _423  and  _424
REMARK  171  A    between atoms: _426  and  _428
REMARK  172  A    between atoms: _428  and  _429
REMARK  173  A    between atoms: _428  and  _431
REMARK  174  A    between atoms: _431  and  _432
REMARK  175  A    between atoms: _432  and  _433
REMARK  176  A    between atoms: _438  and  _440
REMARK  177  A    between atoms: _440  and  _441
REMARK  178  A    between atoms: _440  and  _443
REMARK  179  A    between atoms: _443  and  _444
REMARK  180  A    between atoms: _447  and  _449
REMARK  181  A    between atoms: _449  and  _450
REMARK  182  A    between atoms: _449  and  _452
REMARK  183  A    between atoms: _452  and  _453
REMARK  184  A    between atoms: _455  and  _457
REMARK  185  A    between atoms: _457  and  _458
REMARK  186  A    between atoms: _460  and  _462
REMARK  187  A    between atoms: _462  and  _463
REMARK  188  A    between atoms: _462  and  _465
REMARK  189  A    between atoms: _465  and  _466
REMARK  190  A    between atoms: _468  and  _470
REMARK  191  A    between atoms: _470  and  _471
REMARK  192  A    between atoms: _474  and  _476
REMARK  193  A    between atoms: _476  and  _477
REMARK  194  A    between atoms: _476  and  _479
REMARK  195  A    between atoms: _479  and  _480
REMARK  196  A    between atoms: _483  and  _485
REMARK  197  A    between atoms: _485  and  _486
REMARK  198  A    between atoms: _485  and  _488
REMARK  199  A    between atoms: _491  and  _493
REMARK  200  A    between atoms: _493  and  _494
REMARK  201  A    between atoms: _493  and  _496
REMARK  202  A    between atoms: _496  and  _497
REMARK  203  A    between atoms: _497  and  _498
REMARK  204  A    between atoms: _498  and  _499
REMARK  205  A    between atoms: _499  and  _500
REMARK  206  A    between atoms: _505  and  _506
REMARK                            x       y       z     vdW  Elec       q    Type
REMARK                         _______ _______ _______ _____ _____    ______ ____
ROOT
ATOM      1  O   HOH     1      43.782  26.724  18.527  0.00  0.00    +0.000 OA
ENDROOT
TORSDOF 0
REMARK  Name = ../refined-set-2016/1tjp/1tjp_pocket.pdb
REMARK  206 active torsions:
REMARK  status: ('A' for Active; 'I' for Inactive)
REMARK    1  A    between atoms: _1  and  _3
REMARK    2  A    between atoms: _3  and  _4
REMARK    3  A    between atoms: _3  and  _6
REMARK    4  A    between atoms: _10  and  _11
REMARK    5  A    between atoms: _16  and  _18
REMARK    6  A    between atoms: _18  and  _19
REMARK    7  A    between atoms: _18  and  _21
REMARK    8  A    between atoms: _21  and  _22
REMARK    9  A    between atoms: _28  and  _30
REMARK   10  A    between atoms: _30  and  _31
REMARK   11  A    between atoms: _30  and  _33
REMARK   12  A    between atoms: _36  and  _38
REMARK   13  A    between atoms: _38  and  _39
REMARK   14  A    between atoms: _38  and  _41
REMARK   15  A    between atoms: _41  and  _42
REMARK   16  A    between atoms: _45  and  _47
REMARK   17  A    between atoms: _47  and  _48
REMARK   18  A    between atoms: _47  and  _50
REMARK   19  A    between atoms: _50  and  _51
REMARK   20  A    between atoms: _51  and  _52
REMARK   21  A    between atoms: _55  and  _57
REMARK   22  A    between atoms: _57  and  _58
REMARK   23  A    between atoms: _57  and  _60
REMARK   24  A    between atoms: _60  and  _61
REMARK   25  A    between atoms: _64  and  _66
REMARK   26  A    between atoms: _66  and  _67
REMARK   27  A    between atoms: _70  and  _71
REMARK   28  A    between atoms: _76  and  _78
REMARK   29  A    between atoms: _78  and  _79
REMARK   30  A    between atoms: _78  and  _81
REMARK   31  A    between atoms: _81  and  _82
REMARK   32  A    between atoms: _85  and  _87
REMARK   33  A    between atoms: _87  and  _88
REMARK   34  A    between atoms: _91  and  _93
REMARK   35  A    between atoms: _93  and  _94
REMARK   36  A    between atoms: _93  and  _96
REMARK   37  A    between atoms: _96  and  _97
REMARK   38  A    between atoms: _100  and  _102
REMARK   39  A    between atoms: _102  and  _103
REMARK   40  A    between atoms: _105  and  _107
REMARK   41  A    between atoms: _107  and  _108
REMARK   42  A    between atoms: _107  and  _110
REMARK   43  A    between atoms: _110  and  _111
REMARK   44  A    between atoms: _114  and  _116
REMARK   45  A    between atoms: _116  and  _117
REMARK   46  A    between atoms: _116  and  _119
REMARK   47  A    between atoms: _119  and  _120
REMARK   48  A    between atoms: _123  and  _125
REMARK   49  A    between atoms: _125  and  _126
REMARK   50  A    between atoms: _125  and  _128
REMARK   51  A    between atoms: _128  and  _129
REMARK   52  A    between atoms: _129  and  _130
REMARK   53  A    between atoms: _135  and  _137
REMARK   54  A    between atoms: _137  and  _138
REMARK   55  A    between atoms: _137  and  _140
REMARK   56  A    between atoms: _140  and  _141
REMARK   57  A    between atoms: _146  and  _148
REMARK   58  A    between atoms: _148  and  _149
REMARK   59  A    between atoms: _148  and  _151
REMARK   60  A    between atoms: _151  and  _152
REMARK   61  A    between atoms: _155  and  _157
REMARK   62  A    between atoms: _157  and  _158
REMARK   63  A    between atoms: _157  and  _160
REMARK   64  A    between atoms: _160  and  _161
REMARK   65  A    between atoms: _164  and  _166
REMARK   66  A    between atoms: _166  and  _167
REMARK   67  A    between atoms: _166  and  _169
REMARK   68  A    between atoms: _169  and  _170
REMARK   69  A    between atoms: _170  and  _171
REMARK   70  A    between atoms: _173  and  _175
REMARK   71  A    between atoms: _175  and  _176
REMARK   72  A    between atoms: _175  and  _178
REMARK   73  A    between atoms: _178  and  _179
REMARK   74  A    between atoms: _184  and  _185
REMARK   75  A    between atoms: _187  and  _189
REMARK   76  A    between atoms: _189  and  _190
REMARK   77  A    between atoms: _189  and  _192
REMARK   78  A    between atoms: _192  and  _193
REMARK   79  A    between atoms: _196  and  _198
REMARK   80  A    between atoms: _198  and  _199
REMARK   81  A    between atoms: _198  and  _201
REMARK   82  A    between atoms: _204  and  _206
REMARK   83  A    between atoms: _206  and  _207
REMARK   84  A    between atoms: _210  and  _212
REMARK   85  A    between atoms: _212  and  _213
REMARK   86  A    between atoms: _212  and  _215
REMARK   87  A    between atoms: _215  and  _216
REMARK   88  A    between atoms: _219  and  _221
REMARK   89  A    between atoms: _221  and  _222
REMARK   90  A    between atoms: _221  and  _224
REMARK   91  A    between atoms: _224  and  _225
REMARK   92  A    between atoms: _228  and  _230
REMARK   93  A    between atoms: _230  and  _231
REMARK   94  A    between atoms: _230  and  _233
REMARK   95  A    between atoms: _233  and  _234
REMARK   96  A    between atoms: _239  and  _240
REMARK   97  A    between atoms: _242  and  _244
REMARK   98  A    between atoms: _244  and  _245
REMARK   99  A    between atoms: _244  and  _247
REMARK  100  A    between atoms: _247  and  _248
REMARK  101  A    between atoms: _253  and  _254
REMARK  102  A    between atoms: _256  and  _258
REMARK  103  A    between atoms: _258  and  _259
REMARK  104  A    between atoms: _258  and  _261
REMARK  105  A    between atoms: _261  and  _262
REMARK  106  A    between atoms: _265  and  _267
REMARK  107  A    between atoms: _267  and  _268
REMARK  108  A    between atoms: _267  and  _270
REMARK  109  A    between atoms: _270  and  _271
REMARK  110  A    between atoms: _273  and  _275
REMARK  111  A    between atoms: _275  and  _276
REMARK  112  A    between atoms: _275  and  _278
REMARK  113  A    between atoms: _278  and  _279
REMARK  114  A    between atoms: _279  and  _280
REMARK  115  A    between atoms: _280  and  _281
REMARK  116  A    between atoms: _290  and  _292
REMARK  117  A    between atoms: _292  and  _293
REMARK  118  A    between atoms: _295  and  _297
REMARK  119  A    between atoms: _297  and  _298
REMARK  120  A    between atoms: _297  and  _300
REMARK  121  A    between atoms: _303  and  _305
REMARK  122  A    between atoms: _305  and  _306
REMARK  123  A    between atoms: _305  and  _308
REMARK  124  A    between atoms: _308  and  _309
REMARK  125  A    between atoms: _312  and  _314
REMARK  126  A    between atoms: _314  and  _315
REMARK  127  A    between atoms: _317  and  _319
REMARK  128  A    between atoms: _319  and  _320
REMARK  129  A    between atoms: _323  and  _325
REMARK  130  A    between atoms: _325  and  _326
REMARK  131  A    between atoms: _325  and  _328
REMARK  132  A    between atoms: _328  and  _329
REMARK  133  A    between atoms: _329  and  _330
REMARK  134  A    between atoms: _333  and  _335
REMARK  135  A    between atoms: _335  and  _336
REMARK  136  A    between atoms: _335  and  _338
REMARK  137  A    between atoms: _338  and  _339
REMARK  138  A    between atoms: _344  and  _346
REMARK  139  A    between atoms: _346  and  _347
REMARK  140  A    between atoms: _346  and  _349
REMARK  141  A    between atoms: _349  and  _350
REMARK  142  A    between atoms: _350  and  _351
REMARK  143  A    between atoms: _351  and  _352
REMARK  144  A    between atoms: _361  and  _363
REMARK  145  A    between atoms: _363  and  _364
REMARK  146  A    between atoms: _366  and  _368
REMARK  147  A    between atoms: _368  and  _369
REMARK  148  A    between atoms: _368  and  _371
REMARK  149  A    between atoms: _371  and  _372
REMARK  150  A    between atoms: _375  and  _377
REMARK  151  A    between atoms: _377  and  _378
REMARK  152  A    between atoms: _377  and  _380
REMARK  153  A    between atoms: _380  and  _381
REMARK  154  A    between atoms: _381  and  _382
REMARK  155  A    between atoms: _387  and  _389
REMARK  156  A    between atoms: _389  and  _390
REMARK  157  A    between atoms: _392  and  _394
REMARK  158  A    between atoms: _394  and  _395
REMARK  159  A    between atoms: _394  and  _397
REMARK  160  A    between atoms: _397  and  _398
REMARK  161  A    between atoms: _404  and  _406
REMARK  162  A    between atoms: _406  and  _407
REMARK  163  A    between atoms: _409  and  _411
REMARK  164  A    between atoms: _411  and  _412
REMARK  165  A    between atoms: _411  and  _414
REMARK  166  A    between atoms: _414  and  _415
REMARK  167  A    between atoms: _418  and  _420
REMARK  168  A    between atoms: _420  and  _421
REMARK  169  A    between atoms: _420  and  _423
REMARK  170  A    between atoms: _423  and  _424
REMARK  171  A    between atoms: _426  and  _428
REMARK  172  A    between atoms: _428  and  _429
REMARK  173  A    between atoms: _428  and  _431
REMARK  174  A    between atoms: _431  and  _432
REMARK  175  A    between atoms: _432  and  _433
REMARK  176  A    between atoms: _438  and  _440
REMARK  177  A    between atoms: _440  and  _441
REMARK  178  A    between atoms: _440  and  _443
REMARK  179  A    between atoms: _443  and  _444
REMARK  180  A    between atoms: _447  and  _449
REMARK  181  A    between atoms: _449  and  _450
REMARK  182  A    between atoms: _449  and  _452
REMARK  183  A    between atoms: _452  and  _453
REMARK  184  A    between atoms: _455  and  _457
REMARK  185  A    between atoms: _457  and  _458
REMARK  186  A    between atoms: _460  and  _462
REMARK  187  A    between atoms: _462  and  _463
REMARK  188  A    between atoms: _462  and  _465
REMARK  189  A    between atoms: _465  and  _466
REMARK  190  A    between atoms: _468  and  _470
REMARK  191  A    between atoms: _470  and  _471
REMARK  192  A    between atoms: _474  and  _476
REMARK  193  A    between atoms: _476  and  _477
REMARK  194  A    between atoms: _476  and  _479
REMARK  195  A    between atoms: _479  and  _480
REMARK  196  A    between atoms: _483  and  _485
REMARK  197  A    between atoms: _485  and  _486
REMARK  198  A    between atoms: _485  and  _488
REMARK  199  A    between atoms: _491  and  _493
REMARK  200  A    between atoms: _493  and  _494
REMARK  201  A    between atoms: _493  and  _496
REMARK  202  A    between atoms: _496  and  _497
REMARK  203  A    between atoms: _497  and  _498
REMARK  204  A    between atoms: _498  and  _499
REMARK  205  A    between atoms: _499  and  _500
REMARK  206  A    between atoms: _505  and  _506
REMARK                            x       y       z     vdW  Elec       q    Type
REMARK                         _______ _______ _______ _____ _____    ______ ____
ROOT
ATOM      1  O   HOH     1      54.500  28.271   5.083  0.00  0.00    +0.000 OA
ENDROOT
TORSDOF 0
REMARK  Name = ../refined-set-2016/1tjp/1tjp_pocket.pdb
REMARK  206 active torsions:
REMARK  status: ('A' for Active; 'I' for Inactive)
REMARK    1  A    between atoms: _1  and  _3
REMARK    2  A    between atoms: _3  and  _4
REMARK    3  A    between atoms: _3  and  _6
REMARK    4  A    between atoms: _10  and  _11
REMARK    5  A    between atoms: _16  and  _18
REMARK    6  A    between atoms: _18  and  _19
REMARK    7  A    between atoms: _18  and  _21
REMARK    8  A    between atoms: _21  and  _22
REMARK    9  A    between atoms: _28  and  _30
REMARK   10  A    between atoms: _30  and  _31
REMARK   11  A    between atoms: _30  and  _33
REMARK   12  A    between atoms: _36  and  _38
REMARK   13  A    between atoms: _38  and  _39
REMARK   14  A    between atoms: _38  and  _41
REMARK   15  A    between atoms: _41  and  _42
REMARK   16  A    between atoms: _45  and  _47
REMARK   17  A    between atoms: _47  and  _48
REMARK   18  A    between atoms: _47  and  _50
REMARK   19  A    between atoms: _50  and  _51
REMARK   20  A    between atoms: _51  and  _52
REMARK   21  A    between atoms: _55  and  _57
REMARK   22  A    between atoms: _57  and  _58
REMARK   23  A    between atoms: _57  and  _60
REMARK   24  A    between atoms: _60  and  _61
REMARK   25  A    between atoms: _64  and  _66
REMARK   26  A    between atoms: _66  and  _67
REMARK   27  A    between atoms: _70  and  _71
REMARK   28  A    between atoms: _76  and  _78
REMARK   29  A    between atoms: _78  and  _79
REMARK   30  A    between atoms: _78  and  _81
REMARK   31  A    between atoms: _81  and  _82
REMARK   32  A    between atoms: _85  and  _87
REMARK   33  A    between atoms: _87  and  _88
REMARK   34  A    between atoms: _91  and  _93
REMARK   35  A    between atoms: _93  and  _94
REMARK   36  A    between atoms: _93  and  _96
REMARK   37  A    between atoms: _96  and  _97
REMARK   38  A    between atoms: _100  and  _102
REMARK   39  A    between atoms: _102  and  _103
REMARK   40  A    between atoms: _105  and  _107
REMARK   41  A    between atoms: _107  and  _108
REMARK   42  A    between atoms: _107  and  _110
REMARK   43  A    between atoms: _110  and  _111
REMARK   44  A    between atoms: _114  and  _116
REMARK   45  A    between atoms: _116  and  _117
REMARK   46  A    between atoms: _116  and  _119
REMARK   47  A    between atoms: _119  and  _120
REMARK   48  A    between atoms: _123  and  _125
REMARK   49  A    between atoms: _125  and  _126
REMARK   50  A    between atoms: _125  and  _128
REMARK   51  A    between atoms: _128  and  _129
REMARK   52  A    between atoms: _129  and  _130
REMARK   53  A    between atoms: _135  and  _137
REMARK   54  A    between atoms: _137  and  _138
REMARK   55  A    between atoms: _137  and  _140
REMARK   56  A    between atoms: _140  and  _141
REMARK   57  A    between atoms: _146  and  _148
REMARK   58  A    between atoms: _148  and  _149
REMARK   59  A    between atoms: _148  and  _151
REMARK   60  A    between atoms: _151  and  _152
REMARK   61  A    between atoms: _155  and  _157
REMARK   62  A    between atoms: _157  and  _158
REMARK   63  A    between atoms: _157  and  _160
REMARK   64  A    between atoms: _160  and  _161
REMARK   65  A    between atoms: _164  and  _166
REMARK   66  A    between atoms: _166  and  _167
REMARK   67  A    between atoms: _166  and  _169
REMARK   68  A    between atoms: _169  and  _170
REMARK   69  A    between atoms: _170  and  _171
REMARK   70  A    between atoms: _173  and  _175
REMARK   71  A    between atoms: _175  and  _176
REMARK   72  A    between atoms: _175  and  _178
REMARK   73  A    between atoms: _178  and  _179
REMARK   74  A    between atoms: _184  and  _185
REMARK   75  A    between atoms: _187  and  _189
REMARK   76  A    between atoms: _189  and  _190
REMARK   77  A    between atoms: _189  and  _192
REMARK   78  A    between atoms: _192  and  _193
REMARK   79  A    between atoms: _196  and  _198
REMARK   80  A    between atoms: _198  and  _199
REMARK   81  A    between atoms: _198  and  _201
REMARK   82  A    between atoms: _204  and  _206
REMARK   83  A    between atoms: _206  and  _207
REMARK   84  A    between atoms: _210  and  _212
REMARK   85  A    between atoms: _212  and  _213
REMARK   86  A    between atoms: _212  and  _215
REMARK   87  A    between atoms: _215  and  _216
REMARK   88  A    between atoms: _219  and  _221
REMARK   89  A    between atoms: _221  and  _222
REMARK   90  A    between atoms: _221  and  _224
REMARK   91  A    between atoms: _224  and  _225
REMARK   92  A    between atoms: _228  and  _230
REMARK   93  A    between atoms: _230  and  _231
REMARK   94  A    between atoms: _230  and  _233
REMARK   95  A    between atoms: _233  and  _234
REMARK   96  A    between atoms: _239  and  _240
REMARK   97  A    between atoms: _242  and  _244
REMARK   98  A    between atoms: _244  and  _245
REMARK   99  A    between atoms: _244  and  _247
REMARK  100  A    between atoms: _247  and  _248
REMARK  101  A    between atoms: _253  and  _254
REMARK  102  A    between atoms: _256  and  _258
REMARK  103  A    between atoms: _258  and  _259
REMARK  104  A    between atoms: _258  and  _261
REMARK  105  A    between atoms: _261  and  _262
REMARK  106  A    between atoms: _265  and  _267
REMARK  107  A    between atoms: _267  and  _268
REMARK  108  A    between atoms: _267  and  _270
REMARK  109  A    between atoms: _270  and  _271
REMARK  110  A    between atoms: _273  and  _275
REMARK  111  A    between atoms: _275  and  _276
REMARK  112  A    between atoms: _275  and  _278
REMARK  113  A    between atoms: _278  and  _279
REMARK  114  A    between atoms: _279  and  _280
REMARK  115  A    between atoms: _280  and  _281
REMARK  116  A    between atoms: _290  and  _292
REMARK  117  A    between atoms: _292  and  _293
REMARK  118  A    between atoms: _295  and  _297
REMARK  119  A    between atoms: _297  and  _298
REMARK  120  A    between atoms: _297  and  _300
REMARK  121  A    between atoms: _303  and  _305
REMARK  122  A    between atoms: _305  and  _306
REMARK  123  A    between atoms: _305  and  _308
REMARK  124  A    between atoms: _308  and  _309
REMARK  125  A    between atoms: _312  and  _314
REMARK  126  A    between atoms: _314  and  _315
REMARK  127  A    between atoms: _317  and  _319
REMARK  128  A    between atoms: _319  and  _320
REMARK  129  A    between atoms: _323  and  _325
REMARK  130  A    between atoms: _325  and  _326
REMARK  131  A    between atoms: _325  and  _328
REMARK  132  A    between atoms: _328  and  _329
REMARK  133  A    between atoms: _329  and  _330
REMARK  134  A    between atoms: _333  and  _335
REMARK  135  A    between atoms: _335  and  _336
REMARK  136  A    between atoms: _335  and  _338
REMARK  137  A    between atoms: _338  and  _339
REMARK  138  A    between atoms: _344  and  _346
REMARK  139  A    between atoms: _346  and  _347
REMARK  140  A    between atoms: _346  and  _349
REMARK  141  A    between atoms: _349  and  _350
REMARK  142  A    between atoms: _350  and  _351
REMARK  143  A    between atoms: _351  and  _352
REMARK  144  A    between atoms: _361  and  _363
REMARK  145  A    between atoms: _363  and  _364
REMARK  146  A    between atoms: _366  and  _368
REMARK  147  A    between atoms: _368  and  _369
REMARK  148  A    between atoms: _368  and  _371
REMARK  149  A    between atoms: _371  and  _372
REMARK  150  A    between atoms: _375  and  _377
REMARK  151  A    between atoms: _377  and  _378
REMARK  152  A    between atoms: _377  and  _380
REMARK  153  A    between atoms: _380  and  _381
REMARK  154  A    between atoms: _381  and  _382
REMARK  155  A    between atoms: _387  and  _389
REMARK  156  A    between atoms: _389  and  _390
REMARK  157  A    between atoms: _392  and  _394
REMARK  158  A    between atoms: _394  and  _395
REMARK  159  A    between atoms: _394  and  _397
REMARK  160  A    between atoms: _397  and  _398
REMARK  161  A    between atoms: _404  and  _406
REMARK  162  A    between atoms: _406  and  _407
REMARK  163  A    between atoms: _409  and  _411
REMARK  164  A    between atoms: _411  and  _412
REMARK  165  A    between atoms: _411  and  _414
REMARK  166  A    between atoms: _414  and  _415
REMARK  167  A    between atoms: _418  and  _420
REMARK  168  A    between atoms: _420  and  _421
REMARK  169  A    between atoms: _420  and  _423
REMARK  170  A    between atoms: _423  and  _424
REMARK  171  A    between atoms: _426  and  _428
REMARK  172  A    between atoms: _428  and  _429
REMARK  173  A    between atoms: _428  and  _431
REMARK  174  A    between atoms: _431  and  _432
REMARK  175  A    between atoms: _432  and  _433
REMARK  176  A    between atoms: _438  and  _440
REMARK  177  A    between atoms: _440  and  _441
REMARK  178  A    between atoms: _440  and  _443
REMARK  179  A    between atoms: _443  and  _444
REMARK  180  A    between atoms: _447  and  _449
REMARK  181  A    between atoms: _449  and  _450
REMARK  182  A    between atoms: _449  and  _452
REMARK  183  A    between atoms: _452  and  _453
REMARK  184  A    between atoms: _455  and  _457
REMARK  185  A    between atoms: _457  and  _458
REMARK  186  A    between atoms: _460  and  _462
REMARK  187  A    between atoms: _462  and  _463
REMARK  188  A    between atoms: _462  and  _465
REMARK  189  A    between atoms: _465  and  _466
REMARK  190  A    between atoms: _468  and  _470
REMARK  191  A    between atoms: _470  and  _471
REMARK  192  A    between atoms: _474  and  _476
REMARK  193  A    between atoms: _476  and  _477
REMARK  194  A    between atoms: _476  and  _479
REMARK  195  A    between atoms: _479  and  _480
REMARK  196  A    between atoms: _483  and  _485
REMARK  197  A    between atoms: _485  and  _486
REMARK  198  A    between atoms: _485  and  _488
REMARK  199  A    between atoms: _491  and  _493
REMARK  200  A    between atoms: _493  and  _494
REMARK  201  A    between atoms: _493  and  _496
REMARK  202  A    between atoms: _496  and  _497
REMARK  203  A    between atoms: _497  and  _498
REMARK  204  A    between atoms: _498  and  _499
REMARK  205  A    between atoms: _499  and  _500
REMARK  206  A    between atoms: _505  and  _506
REMARK                            x       y       z     vdW  Elec       q    Type
REMARK                         _______ _______ _______ _____ _____    ______ ____
ROOT
ATOM      1  O   HOH     1      41.499  26.818  19.679  0.00  0.00    +0.000 OA
ENDROOT
TORSDOF 0
REMARK  Name = ../refined-set-2016/1tjp/1tjp_pocket.pdb
REMARK  206 active torsions:
REMARK  status: ('A' for Active; 'I' for Inactive)
REMARK    1  A    between atoms: _1  and  _3
REMARK    2  A    between atoms: _3  and  _4
REMARK    3  A    between atoms: _3  and  _6
REMARK    4  A    between atoms: _10  and  _11
REMARK    5  A    between atoms: _16  and  _18
REMARK    6  A    between atoms: _18  and  _19
REMARK    7  A    between atoms: _18  and  _21
REMARK    8  A    between atoms: _21  and  _22
REMARK    9  A    between atoms: _28  and  _30
REMARK   10  A    between atoms: _30  and  _31
REMARK   11  A    between atoms: _30  and  _33
REMARK   12  A    between atoms: _36  and  _38
REMARK   13  A    between atoms: _38  and  _39
REMARK   14  A    between atoms: _38  and  _41
REMARK   15  A    between atoms: _41  and  _42
REMARK   16  A    between atoms: _45  and  _47
REMARK   17  A    between atoms: _47  and  _48
REMARK   18  A    between atoms: _47  and  _50
REMARK   19  A    between atoms: _50  and  _51
REMARK   20  A    between atoms: _51  and  _52
REMARK   21  A    between atoms: _55  and  _57
REMARK   22  A    between atoms: _57  and  _58
REMARK   23  A    between atoms: _57  and  _60
REMARK   24  A    between atoms: _60  and  _61
REMARK   25  A    between atoms: _64  and  _66
REMARK   26  A    between atoms: _66  and  _67
REMARK   27  A    between atoms: _70  and  _71
REMARK   28  A    between atoms: _76  and  _78
REMARK   29  A    between atoms: _78  and  _79
REMARK   30  A    between atoms: _78  and  _81
REMARK   31  A    between atoms: _81  and  _82
REMARK   32  A    between atoms: _85  and  _87
REMARK   33  A    between atoms: _87  and  _88
REMARK   34  A    between atoms: _91  and  _93
REMARK   35  A    between atoms: _93  and  _94
REMARK   36  A    between atoms: _93  and  _96
REMARK   37  A    between atoms: _96  and  _97
REMARK   38  A    between atoms: _100  and  _102
REMARK   39  A    between atoms: _102  and  _103
REMARK   40  A    between atoms: _105  and  _107
REMARK   41  A    between atoms: _107  and  _108
REMARK   42  A    between atoms: _107  and  _110
REMARK   43  A    between atoms: _110  and  _111
REMARK   44  A    between atoms: _114  and  _116
REMARK   45  A    between atoms: _116  and  _117
REMARK   46  A    between atoms: _116  and  _119
REMARK   47  A    between atoms: _119  and  _120
REMARK   48  A    between atoms: _123  and  _125
REMARK   49  A    between atoms: _125  and  _126
REMARK   50  A    between atoms: _125  and  _128
REMARK   51  A    between atoms: _128  and  _129
REMARK   52  A    between atoms: _129  and  _130
REMARK   53  A    between atoms: _135  and  _137
REMARK   54  A    between atoms: _137  and  _138
REMARK   55  A    between atoms: _137  and  _140
REMARK   56  A    between atoms: _140  and  _141
REMARK   57  A    between atoms: _146  and  _148
REMARK   58  A    between atoms: _148  and  _149
REMARK   59  A    between atoms: _148  and  _151
REMARK   60  A    between atoms: _151  and  _152
REMARK   61  A    between atoms: _155  and  _157
REMARK   62  A    between atoms: _157  and  _158
REMARK   63  A    between atoms: _157  and  _160
REMARK   64  A    between atoms: _160  and  _161
REMARK   65  A    between atoms: _164  and  _166
REMARK   66  A    between atoms: _166  and  _167
REMARK   67  A    between atoms: _166  and  _169
REMARK   68  A    between atoms: _169  and  _170
REMARK   69  A    between atoms: _170  and  _171
REMARK   70  A    between atoms: _173  and  _175
REMARK   71  A    between atoms: _175  and  _176
REMARK   72  A    between atoms: _175  and  _178
REMARK   73  A    between atoms: _178  and  _179
REMARK   74  A    between atoms: _184  and  _185
REMARK   75  A    between atoms: _187  and  _189
REMARK   76  A    between atoms: _189  and  _190
REMARK   77  A    between atoms: _189  and  _192
REMARK   78  A    between atoms: _192  and  _193
REMARK   79  A    between atoms: _196  and  _198
REMARK   80  A    between atoms: _198  and  _199
REMARK   81  A    between atoms: _198  and  _201
REMARK   82  A    between atoms: _204  and  _206
REMARK   83  A    between atoms: _206  and  _207
REMARK   84  A    between atoms: _210  and  _212
REMARK   85  A    between atoms: _212  and  _213
REMARK   86  A    between atoms: _212  and  _215
REMARK   87  A    between atoms: _215  and  _216
REMARK   88  A    between atoms: _219  and  _221
REMARK   89  A    between atoms: _221  and  _222
REMARK   90  A    between atoms: _221  and  _224
REMARK   91  A    between atoms: _224  and  _225
REMARK   92  A    between atoms: _228  and  _230
REMARK   93  A    between atoms: _230  and  _231
REMARK   94  A    between atoms: _230  and  _233
REMARK   95  A    between atoms: _233  and  _234
REMARK   96  A    between atoms: _239  and  _240
REMARK   97  A    between atoms: _242  and  _244
REMARK   98  A    between atoms: _244  and  _245
REMARK   99  A    between atoms: _244  and  _247
REMARK  100  A    between atoms: _247  and  _248
REMARK  101  A    between atoms: _253  and  _254
REMARK  102  A    between atoms: _256  and  _258
REMARK  103  A    between atoms: _258  and  _259
REMARK  104  A    between atoms: _258  and  _261
REMARK  105  A    between atoms: _261  and  _262
REMARK  106  A    between atoms: _265  and  _267
REMARK  107  A    between atoms: _267  and  _268
REMARK  108  A    between atoms: _267  and  _270
REMARK  109  A    between atoms: _270  and  _271
REMARK  110  A    between atoms: _273  and  _275
REMARK  111  A    between atoms: _275  and  _276
REMARK  112  A    between atoms: _275  and  _278
REMARK  113  A    between atoms: _278  and  _279
REMARK  114  A    between atoms: _279  and  _280
REMARK  115  A    between atoms: _280  and  _281
REMARK  116  A    between atoms: _290  and  _292
REMARK  117  A    between atoms: _292  and  _293
REMARK  118  A    between atoms: _295  and  _297
REMARK  119  A    between atoms: _297  and  _298
REMARK  120  A    between atoms: _297  and  _300
REMARK  121  A    between atoms: _303  and  _305
REMARK  122  A    between atoms: _305  and  _306
REMARK  123  A    between atoms: _305  and  _308
REMARK  124  A    between atoms: _308  and  _309
REMARK  125  A    between atoms: _312  and  _314
REMARK  126  A    between atoms: _314  and  _315
REMARK  127  A    between atoms: _317  and  _319
REMARK  128  A    between atoms: _319  and  _320
REMARK  129  A    between atoms: _323  and  _325
REMARK  130  A    between atoms: _325  and  _326
REMARK  131  A    between atoms: _325  and  _328
REMARK  132  A    between atoms: _328  and  _329
REMARK  133  A    between atoms: _329  and  _330
REMARK  134  A    between atoms: _333  and  _335
REMARK  135  A    between atoms: _335  and  _336
REMARK  136  A    between atoms: _335  and  _338
REMARK  137  A    between atoms: _338  and  _339
REMARK  138  A    between atoms: _344  and  _346
REMARK  139  A    between atoms: _346  and  _347
REMARK  140  A    between atoms: _346  and  _349
REMARK  141  A    between atoms: _349  and  _350
REMARK  142  A    between atoms: _350  and  _351
REMARK  143  A    between atoms: _351  and  _352
REMARK  144  A    between atoms: _361  and  _363
REMARK  145  A    between atoms: _363  and  _364
REMARK  146  A    between atoms: _366  and  _368
REMARK  147  A    between atoms: _368  and  _369
REMARK  148  A    between atoms: _368  and  _371
REMARK  149  A    between atoms: _371  and  _372
REMARK  150  A    between atoms: _375  and  _377
REMARK  151  A    between atoms: _377  and  _378
REMARK  152  A    between atoms: _377  and  _380
REMARK  153  A    between atoms: _380  and  _381
REMARK  154  A    between atoms: _381  and  _382
REMARK  155  A    between atoms: _387  and  _389
REMARK  156  A    between atoms: _389  and  _390
REMARK  157  A    between atoms: _392  and  _394
REMARK  158  A    between atoms: _394  and  _395
REMARK  159  A    between atoms: _394  and  _397
REMARK  160  A    between atoms: _397  and  _398
REMARK  161  A    between atoms: _404  and  _406
REMARK  162  A    between atoms: _406  and  _407
REMARK  163  A    between atoms: _409  and  _411
REMARK  164  A    between atoms: _411  and  _412
REMARK  165  A    between atoms: _411  and  _414
REMARK  166  A    between atoms: _414  and  _415
REMARK  167  A    between atoms: _418  and  _420
REMARK  168  A    between atoms: _420  and  _421
REMARK  169  A    between atoms: _420  and  _423
REMARK  170  A    between atoms: _423  and  _424
REMARK  171  A    between atoms: _426  and  _428
REMARK  172  A    between atoms: _428  and  _429
REMARK  173  A    between atoms: _428  and  _431
REMARK  174  A    between atoms: _431  and  _432
REMARK  175  A    between atoms: _432  and  _433
REMARK  176  A    between atoms: _438  and  _440
REMARK  177  A    between atoms: _440  and  _441
REMARK  178  A    between atoms: _440  and  _443
REMARK  179  A    between atoms: _443  and  _444
REMARK  180  A    between atoms: _447  and  _449
REMARK  181  A    between atoms: _449  and  _450
REMARK  182  A    between atoms: _449  and  _452
REMARK  183  A    between atoms: _452  and  _453
REMARK  184  A    between atoms: _455  and  _457
REMARK  185  A    between atoms: _457  and  _458
REMARK  186  A    between atoms: _460  and  _462
REMARK  187  A    between atoms: _462  and  _463
REMARK  188  A    between atoms: _462  and  _465
REMARK  189  A    between atoms: _465  and  _466
REMARK  190  A    between atoms: _468  and  _470
REMARK  191  A    between atoms: _470  and  _471
REMARK  192  A    between atoms: _474  and  _476
REMARK  193  A    between atoms: _476  and  _477
REMARK  194  A    between atoms: _476  and  _479
REMARK  195  A    between atoms: _479  and  _480
REMARK  196  A    between atoms: _483  and  _485
REMARK  197  A    between atoms: _485  and  _486
REMARK  198  A    between atoms: _485  and  _488
REMARK  199  A    between atoms: _491  and  _493
REMARK  200  A    between atoms: _493  and  _494
REMARK  201  A    between atoms: _493  and  _496
REMARK  202  A    between atoms: _496  and  _497
REMARK  203  A    between atoms: _497  and  _498
REMARK  204  A    between atoms: _498  and  _499
REMARK  205  A    between atoms: _499  and  _500
REMARK  206  A    between atoms: _505  and  _506
REMARK                            x       y       z     vdW  Elec       q    Type
REMARK                         _______ _______ _______ _____ _____    ______ ____
ROOT
ATOM      1  O   HOH     1      51.262  17.472  12.599  0.00  0.00    +0.000 OA
ENDROOT
TORSDOF 0
REMARK  Name = ../refined-set-2016/1tjp/1tjp_pocket.pdb
REMARK  206 active torsions:
REMARK  status: ('A' for Active; 'I' for Inactive)
REMARK    1  A    between atoms: _1  and  _3
REMARK    2  A    between atoms: _3  and  _4
REMARK    3  A    between atoms: _3  and  _6
REMARK    4  A    between atoms: _10  and  _11
REMARK    5  A    between atoms: _16  and  _18
REMARK    6  A    between atoms: _18  and  _19
REMARK    7  A    between atoms: _18  and  _21
REMARK    8  A    between atoms: _21  and  _22
REMARK    9  A    between atoms: _28  and  _30
REMARK   10  A    between atoms: _30  and  _31
REMARK   11  A    between atoms: _30  and  _33
REMARK   12  A    between atoms: _36  and  _38
REMARK   13  A    between atoms: _38  and  _39
REMARK   14  A    between atoms: _38  and  _41
REMARK   15  A    between atoms: _41  and  _42
REMARK   16  A    between atoms: _45  and  _47
REMARK   17  A    between atoms: _47  and  _48
REMARK   18  A    between atoms: _47  and  _50
REMARK   19  A    between atoms: _50  and  _51
REMARK   20  A    between atoms: _51  and  _52
REMARK   21  A    between atoms: _55  and  _57
REMARK   22  A    between atoms: _57  and  _58
REMARK   23  A    between atoms: _57  and  _60
REMARK   24  A    between atoms: _60  and  _61
REMARK   25  A    between atoms: _64  and  _66
REMARK   26  A    between atoms: _66  and  _67
REMARK   27  A    between atoms: _70  and  _71
REMARK   28  A    between atoms: _76  and  _78
REMARK   29  A    between atoms: _78  and  _79
REMARK   30  A    between atoms: _78  and  _81
REMARK   31  A    between atoms: _81  and  _82
REMARK   32  A    between atoms: _85  and  _87
REMARK   33  A    between atoms: _87  and  _88
REMARK   34  A    between atoms: _91  and  _93
REMARK   35  A    between atoms: _93  and  _94
REMARK   36  A    between atoms: _93  and  _96
REMARK   37  A    between atoms: _96  and  _97
REMARK   38  A    between atoms: _100  and  _102
REMARK   39  A    between atoms: _102  and  _103
REMARK   40  A    between atoms: _105  and  _107
REMARK   41  A    between atoms: _107  and  _108
REMARK   42  A    between atoms: _107  and  _110
REMARK   43  A    between atoms: _110  and  _111
REMARK   44  A    between atoms: _114  and  _116
REMARK   45  A    between atoms: _116  and  _117
REMARK   46  A    between atoms: _116  and  _119
REMARK   47  A    between atoms: _119  and  _120
REMARK   48  A    between atoms: _123  and  _125
REMARK   49  A    between atoms: _125  and  _126
REMARK   50  A    between atoms: _125  and  _128
REMARK   51  A    between atoms: _128  and  _129
REMARK   52  A    between atoms: _129  and  _130
REMARK   53  A    between atoms: _135  and  _137
REMARK   54  A    between atoms: _137  and  _138
REMARK   55  A    between atoms: _137  and  _140
REMARK   56  A    between atoms: _140  and  _141
REMARK   57  A    between atoms: _146  and  _148
REMARK   58  A    between atoms: _148  and  _149
REMARK   59  A    between atoms: _148  and  _151
REMARK   60  A    between atoms: _151  and  _152
REMARK   61  A    between atoms: _155  and  _157
REMARK   62  A    between atoms: _157  and  _158
REMARK   63  A    between atoms: _157  and  _160
REMARK   64  A    between atoms: _160  and  _161
REMARK   65  A    between atoms: _164  and  _166
REMARK   66  A    between atoms: _166  and  _167
REMARK   67  A    between atoms: _166  and  _169
REMARK   68  A    between atoms: _169  and  _170
REMARK   69  A    between atoms: _170  and  _171
REMARK   70  A    between atoms: _173  and  _175
REMARK   71  A    between atoms: _175  and  _176
REMARK   72  A    between atoms: _175  and  _178
REMARK   73  A    between atoms: _178  and  _179
REMARK   74  A    between atoms: _184  and  _185
REMARK   75  A    between atoms: _187  and  _189
REMARK   76  A    between atoms: _189  and  _190
REMARK   77  A    between atoms: _189  and  _192
REMARK   78  A    between atoms: _192  and  _193
REMARK   79  A    between atoms: _196  and  _198
REMARK   80  A    between atoms: _198  and  _199
REMARK   81  A    between atoms: _198  and  _201
REMARK   82  A    between atoms: _204  and  _206
REMARK   83  A    between atoms: _206  and  _207
REMARK   84  A    between atoms: _210  and  _212
REMARK   85  A    between atoms: _212  and  _213
REMARK   86  A    between atoms: _212  and  _215
REMARK   87  A    between atoms: _215  and  _216
REMARK   88  A    between atoms: _219  and  _221
REMARK   89  A    between atoms: _221  and  _222
REMARK   90  A    between atoms: _221  and  _224
REMARK   91  A    between atoms: _224  and  _225
REMARK   92  A    between atoms: _228  and  _230
REMARK   93  A    between atoms: _230  and  _231
REMARK   94  A    between atoms: _230  and  _233
REMARK   95  A    between atoms: _233  and  _234
REMARK   96  A    between atoms: _239  and  _240
REMARK   97  A    between atoms: _242  and  _244
REMARK   98  A    between atoms: _244  and  _245
REMARK   99  A    between atoms: _244  and  _247
REMARK  100  A    between atoms: _247  and  _248
REMARK  101  A    between atoms: _253  and  _254
REMARK  102  A    between atoms: _256  and  _258
REMARK  103  A    between atoms: _258  and  _259
REMARK  104  A    between atoms: _258  and  _261
REMARK  105  A    between atoms: _261  and  _262
REMARK  106  A    between atoms: _265  and  _267
REMARK  107  A    between atoms: _267  and  _268
REMARK  108  A    between atoms: _267  and  _270
REMARK  109  A    between atoms: _270  and  _271
REMARK  110  A    between atoms: _273  and  _275
REMARK  111  A    between atoms: _275  and  _276
REMARK  112  A    between atoms: _275  and  _278
REMARK  113  A    between atoms: _278  and  _279
REMARK  114  A    between atoms: _279  and  _280
REMARK  115  A    between atoms: _280  and  _281
REMARK  116  A    between atoms: _290  and  _292
REMARK  117  A    between atoms: _292  and  _293
REMARK  118  A    between atoms: _295  and  _297
REMARK  119  A    between atoms: _297  and  _298
REMARK  120  A    between atoms: _297  and  _300
REMARK  121  A    between atoms: _303  and  _305
REMARK  122  A    between atoms: _305  and  _306
REMARK  123  A    between atoms: _305  and  _308
REMARK  124  A    between atoms: _308  and  _309
REMARK  125  A    between atoms: _312  and  _314
REMARK  126  A    between atoms: _314  and  _315
REMARK  127  A    between atoms: _317  and  _319
REMARK  128  A    between atoms: _319  and  _320
REMARK  129  A    between atoms: _323  and  _325
REMARK  130  A    between atoms: _325  and  _326
REMARK  131  A    between atoms: _325  and  _328
REMARK  132  A    between atoms: _328  and  _329
REMARK  133  A    between atoms: _329  and  _330
REMARK  134  A    between atoms: _333  and  _335
REMARK  135  A    between atoms: _335  and  _336
REMARK  136  A    between atoms: _335  and  _338
REMARK  137  A    between atoms: _338  and  _339
REMARK  138  A    between atoms: _344  and  _346
REMARK  139  A    between atoms: _346  and  _347
REMARK  140  A    between atoms: _346  and  _349
REMARK  141  A    between atoms: _349  and  _350
REMARK  142  A    between atoms: _350  and  _351
REMARK  143  A    between atoms: _351  and  _352
REMARK  144  A    between atoms: _361  and  _363
REMARK  145  A    between atoms: _363  and  _364
REMARK  146  A    between atoms: _366  and  _368
REMARK  147  A    between atoms: _368  and  _369
REMARK  148  A    between atoms: _368  and  _371
REMARK  149  A    between atoms: _371  and  _372
REMARK  150  A    between atoms: _375  and  _377
REMARK  151  A    between atoms: _377  and  _378
REMARK  152  A    between atoms: _377  and  _380
REMARK  153  A    between atoms: _380  and  _381
REMARK  154  A    between atoms: _381  and  _382
REMARK  155  A    between atoms: _387  and  _389
REMARK  156  A    between atoms: _389  and  _390
REMARK  157  A    between atoms: _392  and  _394
REMARK  158  A    between atoms: _394  and  _395
REMARK  159  A    between atoms: _394  and  _397
REMARK  160  A    between atoms: _397  and  _398
REMARK  161  A    between atoms: _404  and  _406
REMARK  162  A    between atoms: _406  and  _407
REMARK  163  A    between atoms: _409  and  _411
REMARK  164  A    between atoms: _411  and  _412
REMARK  165  A    between atoms: _411  and  _414
REMARK  166  A    between atoms: _414  and  _415
REMARK  167  A    between atoms: _418  and  _420
REMARK  168  A    between atoms: _420  and  _421
REMARK  169  A    between atoms: _420  and  _423
REMARK  170  A    between atoms: _423  and  _424
REMARK  171  A    between atoms: _426  and  _428
REMARK  172  A    between atoms: _428  and  _429
REMARK  173  A    between atoms: _428  and  _431
REMARK  174  A    between atoms: _431  and  _432
REMARK  175  A    between atoms: _432  and  _433
REMARK  176  A    between atoms: _438  and  _440
REMARK  177  A    between atoms: _440  and  _441
REMARK  178  A    between atoms: _440  and  _443
REMARK  179  A    between atoms: _443  and  _444
REMARK  180  A    between atoms: _447  and  _449
REMARK  181  A    between atoms: _449  and  _450
REMARK  182  A    between atoms: _449  and  _452
REMARK  183  A    between atoms: _452  and  _453
REMARK  184  A    between atoms: _455  and  _457
REMARK  185  A    between atoms: _457  and  _458
REMARK  186  A    between atoms: _460  and  _462
REMARK  187  A    between atoms: _462  and  _463
REMARK  188  A    between atoms: _462  and  _465
REMARK  189  A    between atoms: _465  and  _466
REMARK  190  A    between atoms: _468  and  _470
REMARK  191  A    between atoms: _470  and  _471
REMARK  192  A    between atoms: _474  and  _476
REMARK  193  A    between atoms: _476  and  _477
REMARK  194  A    between atoms: _476  and  _479
REMARK  195  A    between atoms: _479  and  _480
REMARK  196  A    between atoms: _483  and  _485
REMARK  197  A    between atoms: _485  and  _486
REMARK  198  A    between atoms: _485  and  _488
REMARK  199  A    between atoms: _491  and  _493
REMARK  200  A    between atoms: _493  and  _494
REMARK  201  A    between atoms: _493  and  _496
REMARK  202  A    between atoms: _496  and  _497
REMARK  203  A    between atoms: _497  and  _498
REMARK  204  A    between atoms: _498  and  _499
REMARK  205  A    between atoms: _499  and  _500
REMARK  206  A    between atoms: _505  and  _506
REMARK                            x       y       z     vdW  Elec       q    Type
REMARK                         _______ _______ _______ _____ _____    ______ ____
ROOT
ATOM      1  O   HOH     1      57.016  20.393  10.801  0.00  0.00    +0.000 OA
ENDROOT
TORSDOF 0
REMARK  Name = ../refined-set-2016/1tjp/1tjp_pocket.pdb
REMARK  206 active torsions:
REMARK  status: ('A' for Active; 'I' for Inactive)
REMARK    1  A    between atoms: _1  and  _3
REMARK    2  A    between atoms: _3  and  _4
REMARK    3  A    between atoms: _3  and  _6
REMARK    4  A    between atoms: _10  and  _11
REMARK    5  A    between atoms: _16  and  _18
REMARK    6  A    between atoms: _18  and  _19
REMARK    7  A    between atoms: _18  and  _21
REMARK    8  A    between atoms: _21  and  _22
REMARK    9  A    between atoms: _28  and  _30
REMARK   10  A    between atoms: _30  and  _31
REMARK   11  A    between atoms: _30  and  _33
REMARK   12  A    between atoms: _36  and  _38
REMARK   13  A    between atoms: _38  and  _39
REMARK   14  A    between atoms: _38  and  _41
REMARK   15  A    between atoms: _41  and  _42
REMARK   16  A    between atoms: _45  and  _47
REMARK   17  A    between atoms: _47  and  _48
REMARK   18  A    between atoms: _47  and  _50
REMARK   19  A    between atoms: _50  and  _51
REMARK   20  A    between atoms: _51  and  _52
REMARK   21  A    between atoms: _55  and  _57
REMARK   22  A    between atoms: _57  and  _58
REMARK   23  A    between atoms: _57  and  _60
REMARK   24  A    between atoms: _60  and  _61
REMARK   25  A    between atoms: _64  and  _66
REMARK   26  A    between atoms: _66  and  _67
REMARK   27  A    between atoms: _70  and  _71
REMARK   28  A    between atoms: _76  and  _78
REMARK   29  A    between atoms: _78  and  _79
REMARK   30  A    between atoms: _78  and  _81
REMARK   31  A    between atoms: _81  and  _82
REMARK   32  A    between atoms: _85  and  _87
REMARK   33  A    between atoms: _87  and  _88
REMARK   34  A    between atoms: _91  and  _93
REMARK   35  A    between atoms: _93  and  _94
REMARK   36  A    between atoms: _93  and  _96
REMARK   37  A    between atoms: _96  and  _97
REMARK   38  A    between atoms: _100  and  _102
REMARK   39  A    between atoms: _102  and  _103
REMARK   40  A    between atoms: _105  and  _107
REMARK   41  A    between atoms: _107  and  _108
REMARK   42  A    between atoms: _107  and  _110
REMARK   43  A    between atoms: _110  and  _111
REMARK   44  A    between atoms: _114  and  _116
REMARK   45  A    between atoms: _116  and  _117
REMARK   46  A    between atoms: _116  and  _119
REMARK   47  A    between atoms: _119  and  _120
REMARK   48  A    between atoms: _123  and  _125
REMARK   49  A    between atoms: _125  and  _126
REMARK   50  A    between atoms: _125  and  _128
REMARK   51  A    between atoms: _128  and  _129
REMARK   52  A    between atoms: _129  and  _130
REMARK   53  A    between atoms: _135  and  _137
REMARK   54  A    between atoms: _137  and  _138
REMARK   55  A    between atoms: _137  and  _140
REMARK   56  A    between atoms: _140  and  _141
REMARK   57  A    between atoms: _146  and  _148
REMARK   58  A    between atoms: _148  and  _149
REMARK   59  A    between atoms: _148  and  _151
REMARK   60  A    between atoms: _151  and  _152
REMARK   61  A    between atoms: _155  and  _157
REMARK   62  A    between atoms: _157  and  _158
REMARK   63  A    between atoms: _157  and  _160
REMARK   64  A    between atoms: _160  and  _161
REMARK   65  A    between atoms: _164  and  _166
REMARK   66  A    between atoms: _166  and  _167
REMARK   67  A    between atoms: _166  and  _169
REMARK   68  A    between atoms: _169  and  _170
REMARK   69  A    between atoms: _170  and  _171
REMARK   70  A    between atoms: _173  and  _175
REMARK   71  A    between atoms: _175  and  _176
REMARK   72  A    between atoms: _175  and  _178
REMARK   73  A    between atoms: _178  and  _179
REMARK   74  A    between atoms: _184  and  _185
REMARK   75  A    between atoms: _187  and  _189
REMARK   76  A    between atoms: _189  and  _190
REMARK   77  A    between atoms: _189  and  _192
REMARK   78  A    between atoms: _192  and  _193
REMARK   79  A    between atoms: _196  and  _198
REMARK   80  A    between atoms: _198  and  _199
REMARK   81  A    between atoms: _198  and  _201
REMARK   82  A    between atoms: _204  and  _206
REMARK   83  A    between atoms: _206  and  _207
REMARK   84  A    between atoms: _210  and  _212
REMARK   85  A    between atoms: _212  and  _213
REMARK   86  A    between atoms: _212  and  _215
REMARK   87  A    between atoms: _215  and  _216
REMARK   88  A    between atoms: _219  and  _221
REMARK   89  A    between atoms: _221  and  _222
REMARK   90  A    between atoms: _221  and  _224
REMARK   91  A    between atoms: _224  and  _225
REMARK   92  A    between atoms: _228  and  _230
REMARK   93  A    between atoms: _230  and  _231
REMARK   94  A    between atoms: _230  and  _233
REMARK   95  A    between atoms: _233  and  _234
REMARK   96  A    between atoms: _239  and  _240
REMARK   97  A    between atoms: _242  and  _244
REMARK   98  A    between atoms: _244  and  _245
REMARK   99  A    between atoms: _244  and  _247
REMARK  100  A    between atoms: _247  and  _248
REMARK  101  A    between atoms: _253  and  _254
REMARK  102  A    between atoms: _256  and  _258
REMARK  103  A    between atoms: _258  and  _259
REMARK  104  A    between atoms: _258  and  _261
REMARK  105  A    between atoms: _261  and  _262
REMARK  106  A    between atoms: _265  and  _267
REMARK  107  A    between atoms: _267  and  _268
REMARK  108  A    between atoms: _267  and  _270
REMARK  109  A    between atoms: _270  and  _271
REMARK  110  A    between atoms: _273  and  _275
REMARK  111  A    between atoms: _275  and  _276
REMARK  112  A    between atoms: _275  and  _278
REMARK  113  A    between atoms: _278  and  _279
REMARK  114  A    between atoms: _279  and  _280
REMARK  115  A    between atoms: _280  and  _281
REMARK  116  A    between atoms: _290  and  _292
REMARK  117  A    between atoms: _292  and  _293
REMARK  118  A    between atoms: _295  and  _297
REMARK  119  A    between atoms: _297  and  _298
REMARK  120  A    between atoms: _297  and  _300
REMARK  121  A    between atoms: _303  and  _305
REMARK  122  A    between atoms: _305  and  _306
REMARK  123  A    between atoms: _305  and  _308
REMARK  124  A    between atoms: _308  and  _309
REMARK  125  A    between atoms: _312  and  _314
REMARK  126  A    between atoms: _314  and  _315
REMARK  127  A    between atoms: _317  and  _319
REMARK  128  A    between atoms: _319  and  _320
REMARK  129  A    between atoms: _323  and  _325
REMARK  130  A    between atoms: _325  and  _326
REMARK  131  A    between atoms: _325  and  _328
REMARK  132  A    between atoms: _328  and  _329
REMARK  133  A    between atoms: _329  and  _330
REMARK  134  A    between atoms: _333  and  _335
REMARK  135  A    between atoms: _335  and  _336
REMARK  136  A    between atoms: _335  and  _338
REMARK  137  A    between atoms: _338  and  _339
REMARK  138  A    between atoms: _344  and  _346
REMARK  139  A    between atoms: _346  and  _347
REMARK  140  A    between atoms: _346  and  _349
REMARK  141  A    between atoms: _349  and  _350
REMARK  142  A    between atoms: _350  and  _351
REMARK  143  A    between atoms: _351  and  _352
REMARK  144  A    between atoms: _361  and  _363
REMARK  145  A    between atoms: _363  and  _364
REMARK  146  A    between atoms: _366  and  _368
REMARK  147  A    between atoms: _368  and  _369
REMARK  148  A    between atoms: _368  and  _371
REMARK  149  A    between atoms: _371  and  _372
REMARK  150  A    between atoms: _375  and  _377
REMARK  151  A    between atoms: _377  and  _378
REMARK  152  A    between atoms: _377  and  _380
REMARK  153  A    between atoms: _380  and  _381
REMARK  154  A    between atoms: _381  and  _382
REMARK  155  A    between atoms: _387  and  _389
REMARK  156  A    between atoms: _389  and  _390
REMARK  157  A    between atoms: _392  and  _394
REMARK  158  A    between atoms: _394  and  _395
REMARK  159  A    between atoms: _394  and  _397
REMARK  160  A    between atoms: _397  and  _398
REMARK  161  A    between atoms: _404  and  _406
REMARK  162  A    between atoms: _406  and  _407
REMARK  163  A    between atoms: _409  and  _411
REMARK  164  A    between atoms: _411  and  _412
REMARK  165  A    between atoms: _411  and  _414
REMARK  166  A    between atoms: _414  and  _415
REMARK  167  A    between atoms: _418  and  _420
REMARK  168  A    between atoms: _420  and  _421
REMARK  169  A    between atoms: _420  and  _423
REMARK  170  A    between atoms: _423  and  _424
REMARK  171  A    between atoms: _426  and  _428
REMARK  172  A    between atoms: _428  and  _429
REMARK  173  A    between atoms: _428  and  _431
REMARK  174  A    between atoms: _431  and  _432
REMARK  175  A    between atoms: _432  and  _433
REMARK  176  A    between atoms: _438  and  _440
REMARK  177  A    between atoms: _440  and  _441
REMARK  178  A    between atoms: _440  and  _443
REMARK  179  A    between atoms: _443  and  _444
REMARK  180  A    between atoms: _447  and  _449
REMARK  181  A    between atoms: _449  and  _450
REMARK  182  A    between atoms: _449  and  _452
REMARK  183  A    between atoms: _452  and  _453
REMARK  184  A    between atoms: _455  and  _457
REMARK  185  A    between atoms: _457  and  _458
REMARK  186  A    between atoms: _460  and  _462
REMARK  187  A    between atoms: _462  and  _463
REMARK  188  A    between atoms: _462  and  _465
REMARK  189  A    between atoms: _465  and  _466
REMARK  190  A    between atoms: _468  and  _470
REMARK  191  A    between atoms: _470  and  _471
REMARK  192  A    between atoms: _474  and  _476
REMARK  193  A    between atoms: _476  and  _477
REMARK  194  A    between atoms: _476  and  _479
REMARK  195  A    between atoms: _479  and  _480
REMARK  196  A    between atoms: _483  and  _485
REMARK  197  A    between atoms: _485  and  _486
REMARK  198  A    between atoms: _485  and  _488
REMARK  199  A    between atoms: _491  and  _493
REMARK  200  A    between atoms: _493  and  _494
REMARK  201  A    between atoms: _493  and  _496
REMARK  202  A    between atoms: _496  and  _497
REMARK  203  A    between atoms: _497  and  _498
REMARK  204  A    between atoms: _498  and  _499
REMARK  205  A    between atoms: _499  and  _500
REMARK  206  A    between atoms: _505  and  _506
REMARK                            x       y       z     vdW  Elec       q    Type
REMARK                         _______ _______ _______ _____ _____    ______ ____
ROOT
ATOM      1  O   HOH     1      51.664  17.386  15.766  0.00  0.00    +0.000 OA
ENDROOT
TORSDOF 0
