REMARK  Name = ../refined-set-2016/1xws/1xws_pocket.pdb
REMARK  202 active torsions:
REMARK  status: ('A' for Active; 'I' for Inactive)
REMARK    1  A    between atoms: _1  and  _3
REMARK    2  A    between atoms: _3  and  _4
REMARK    3  A    between atoms: _3  and  _6
REMARK    4  A    between atoms: _6  and  _7
REMARK    5  A    between atoms: _10  and  _12
REMARK    6  A    between atoms: _12  and  _13
REMARK    7  A    between atoms: _12  and  _15
REMARK    8  A    between atoms: _15  and  _16
REMARK    9  A    between atoms: _19  and  _21
REMARK   10  A    between atoms: _21  and  _22
REMARK   11  A    between atoms: _24  and  _26
REMARK   12  A    between atoms: _26  and  _27
REMARK   13  A    between atoms: _26  and  _29
REMARK   14  A    between atoms: _29  and  _30
REMARK   15  A    between atoms: _32  and  _34
REMARK   16  A    between atoms: _34  and  _35
REMARK   17  A    between atoms: _37  and  _39
REMARK   18  A    between atoms: _39  and  _40
REMARK   19  A    between atoms: _42  and  _44
REMARK   20  A    between atoms: _44  and  _45
REMARK   21  A    between atoms: _44  and  _47
REMARK   22  A    between atoms: _47  and  _48
REMARK   23  A    between atoms: _54  and  _56
REMARK   24  A    between atoms: _56  and  _57
REMARK   25  A    between atoms: _59  and  _61
REMARK   26  A    between atoms: _61  and  _62
REMARK   27  A    between atoms: _61  and  _64
REMARK   28  A    between atoms: _64  and  _65
REMARK   29  A    between atoms: _67  and  _69
REMARK   30  A    between atoms: _69  and  _70
REMARK   31  A    between atoms: _69  and  _72
REMARK   32  A    between atoms: _75  and  _77
REMARK   33  A    between atoms: _77  and  _78
REMARK   34  A    between atoms: _77  and  _80
REMARK   35  A    between atoms: _80  and  _81
REMARK   36  A    between atoms: _86  and  _87
REMARK   37  A    between atoms: _89  and  _91
REMARK   38  A    between atoms: _91  and  _92
REMARK   39  A    between atoms: _91  and  _94
REMARK   40  A    between atoms: _94  and  _95
REMARK   41  A    between atoms: _97  and  _99
REMARK   42  A    between atoms: _99  and  _100
REMARK   43  A    between atoms: _103  and  _104
REMARK   44  A    between atoms: _109  and  _111
REMARK   45  A    between atoms: _111  and  _112
REMARK   46  A    between atoms: _111  and  _114
REMARK   47  A    between atoms: _117  and  _119
REMARK   48  A    between atoms: _119  and  _120
REMARK   49  A    between atoms: _123  and  _125
REMARK   50  A    between atoms: _125  and  _126
REMARK   51  A    between atoms: _125  and  _128
REMARK   52  A    between atoms: _128  and  _129
REMARK   53  A    between atoms: _132  and  _134
REMARK   54  A    between atoms: _134  and  _135
REMARK   55  A    between atoms: _134  and  _137
REMARK   56  A    between atoms: _137  and  _138
REMARK   57  A    between atoms: _138  and  _139
REMARK   58  A    between atoms: _139  and  _140
REMARK   59  A    between atoms: _140  and  _141
REMARK   60  A    between atoms: _145  and  _147
REMARK   61  A    between atoms: _147  and  _148
REMARK   62  A    between atoms: _147  and  _150
REMARK   63  A    between atoms: _150  and  _151
REMARK   64  A    between atoms: _156  and  _158
REMARK   65  A    between atoms: _158  and  _159
REMARK   66  A    between atoms: _158  and  _161
REMARK   67  A    between atoms: _164  and  _166
REMARK   68  A    between atoms: _166  and  _167
REMARK   69  A    between atoms: _166  and  _169
REMARK   70  A    between atoms: _169  and  _170
REMARK   71  A    between atoms: _170  and  _171
REMARK   72  A    between atoms: _174  and  _176
REMARK   73  A    between atoms: _176  and  _177
REMARK   74  A    between atoms: _176  and  _179
REMARK   75  A    between atoms: _179  and  _180
REMARK   76  A    between atoms: _183  and  _185
REMARK   77  A    between atoms: _185  and  _186
REMARK   78  A    between atoms: _185  and  _188
REMARK   79  A    between atoms: _191  and  _193
REMARK   80  A    between atoms: _193  and  _194
REMARK   81  A    between atoms: _193  and  _196
REMARK   82  A    between atoms: _196  and  _197
REMARK   83  A    between atoms: _200  and  _202
REMARK   84  A    between atoms: _202  and  _203
REMARK   85  A    between atoms: _202  and  _205
REMARK   86  A    between atoms: _205  and  _206
REMARK   87  A    between atoms: _206  and  _207
REMARK   88  A    between atoms: _207  and  _208
REMARK   89  A    between atoms: _217  and  _219
REMARK   90  A    between atoms: _219  and  _220
REMARK   91  A    between atoms: _219  and  _222
REMARK   92  A    between atoms: _222  and  _223
REMARK   93  A    between atoms: _226  and  _228
REMARK   94  A    between atoms: _228  and  _229
REMARK   95  A    between atoms: _228  and  _231
REMARK   96  A    between atoms: _231  and  _232
REMARK   97  A    between atoms: _235  and  _237
REMARK   98  A    between atoms: _237  and  _238
REMARK   99  A    between atoms: _237  and  _240
REMARK  100  A    between atoms: _240  and  _241
REMARK  101  A    between atoms: _244  and  _246
REMARK  102  A    between atoms: _246  and  _247
REMARK  103  A    between atoms: _246  and  _249
REMARK  104  A    between atoms: _249  and  _250
REMARK  105  A    between atoms: _253  and  _255
REMARK  106  A    between atoms: _255  and  _256
REMARK  107  A    between atoms: _255  and  _258
REMARK  108  A    between atoms: _258  and  _259
REMARK  109  A    between atoms: _259  and  _260
REMARK  110  A    between atoms: _263  and  _265
REMARK  111  A    between atoms: _265  and  _266
REMARK  112  A    between atoms: _265  and  _268
REMARK  113  A    between atoms: _268  and  _269
REMARK  114  A    between atoms: _269  and  _270
REMARK  115  A    between atoms: _270  and  _271
REMARK  116  A    between atoms: _281  and  _282
REMARK  117  A    between atoms: _287  and  _289
REMARK  118  A    between atoms: _289  and  _290
REMARK  119  A    between atoms: _289  and  _292
REMARK  120  A    between atoms: _292  and  _293
REMARK  121  A    between atoms: _293  and  _294
REMARK  122  A    between atoms: _297  and  _299
REMARK  123  A    between atoms: _299  and  _300
REMARK  124  A    between atoms: _299  and  _302
REMARK  125  A    between atoms: _305  and  _307
REMARK  126  A    between atoms: _307  and  _308
REMARK  127  A    between atoms: _307  and  _310
REMARK  128  A    between atoms: _310  and  _311
REMARK  129  A    between atoms: _311  and  _312
REMARK  130  A    between atoms: _317  and  _319
REMARK  131  A    between atoms: _319  and  _320
REMARK  132  A    between atoms: _319  and  _322
REMARK  133  A    between atoms: _322  and  _323
REMARK  134  A    between atoms: _326  and  _328
REMARK  135  A    between atoms: _328  and  _329
REMARK  136  A    between atoms: _328  and  _331
REMARK  137  A    between atoms: _331  and  _332
REMARK  138  A    between atoms: _338  and  _340
REMARK  139  A    between atoms: _340  and  _341
REMARK  140  A    between atoms: _340  and  _343
REMARK  141  A    between atoms: _343  and  _344
REMARK  142  A    between atoms: _347  and  _349
REMARK  143  A    between atoms: _349  and  _350
REMARK  144  A    between atoms: _349  and  _352
REMARK  145  A    between atoms: _352  and  _353
REMARK  146  A    between atoms: _353  and  _354
REMARK  147  A    between atoms: _354  and  _355
REMARK  148  A    between atoms: _355  and  _356
REMARK  149  A    between atoms: _360  and  _362
REMARK  150  A    between atoms: _362  and  _363
REMARK  151  A    between atoms: _362  and  _365
REMARK  152  A    between atoms: _365  and  _366
REMARK  153  A    between atoms: _369  and  _371
REMARK  154  A    between atoms: _371  and  _372
REMARK  155  A    between atoms: _371  and  _374
REMARK  156  A    between atoms: _374  and  _375
REMARK  157  A    between atoms: _375  and  _376
REMARK  158  A    between atoms: _379  and  _381
REMARK  159  A    between atoms: _381  and  _382
REMARK  160  A    between atoms: _381  and  _384
REMARK  161  A    between atoms: _384  and  _385
REMARK  162  A    between atoms: _390  and  _392
REMARK  163  A    between atoms: _392  and  _393
REMARK  164  A    between atoms: _392  and  _395
REMARK  165  A    between atoms: _395  and  _396
REMARK  166  A    between atoms: _399  and  _401
REMARK  167  A    between atoms: _401  and  _402
REMARK  168  A    between atoms: _401  and  _404
REMARK  169  A    between atoms: _404  and  _405
REMARK  170  A    between atoms: _408  and  _410
REMARK  171  A    between atoms: _410  and  _411
REMARK  172  A    between atoms: _410  and  _413
REMARK  173  A    between atoms: _413  and  _414
REMARK  174  A    between atoms: _417  and  _419
REMARK  175  A    between atoms: _419  and  _420
REMARK  176  A    between atoms: _419  and  _422
REMARK  177  A    between atoms: _422  and  _423
REMARK  178  A    between atoms: _423  and  _424
REMARK  179  A    between atoms: _424  and  _425
REMARK  180  A    between atoms: _425  and  _426
REMARK  181  A    between atoms: _430  and  _432
REMARK  182  A    between atoms: _432  and  _433
REMARK  183  A    between atoms: _432  and  _435
REMARK  184  A    between atoms: _435  and  _436
REMARK  185  A    between atoms: _439  and  _441
REMARK  186  A    between atoms: _441  and  _442
REMARK  187  A    between atoms: _441  and  _444
REMARK  188  A    between atoms: _444  and  _445
REMARK  189  A    between atoms: _448  and  _450
REMARK  190  A    between atoms: _450  and  _451
REMARK  191  A    between atoms: _450  and  _453
REMARK  192  A    between atoms: _453  and  _454
REMARK  193  A    between atoms: _457  and  _459
REMARK  194  A    between atoms: _459  and  _460
REMARK  195  A    between atoms: _459  and  _462
REMARK  196  A    between atoms: _462  and  _463
REMARK  197  A    between atoms: _469  and  _471
REMARK  198  A    between atoms: _471  and  _472
REMARK  199  A    between atoms: _474  and  _476
REMARK  200  A    between atoms: _476  and  _477
REMARK  201  A    between atoms: _476  and  _479
REMARK  202  A    between atoms: _479  and  _480
REMARK                            x       y       z     vdW  Elec       q    Type
REMARK                         _______ _______ _______ _____ _____    ______ ____
ROOT
ATOM      1  CA  PHE A   7     -14.880 -29.574  -0.142  0.00  0.00    +0.153 C 
ENDROOT
BRANCH   1   3
ATOM      2  C   GLY A   6     -13.675 -27.992   1.316  0.00  0.00    +0.243 C 
ATOM      3  N   PHE A   7     -14.428 -29.083   1.148  0.00  0.00    -0.297 N 
ATOM      4  H   PHE A   7     -14.709 -29.615   1.996  0.00  0.00    +0.150 HD
ATOM      5  O   GLY A   6     -13.221 -27.320   0.403  0.00  0.00    -0.273 OA
BRANCH   2   6
ATOM      6  CA  GLY A   6     -13.365 -27.600   2.730  0.00  0.00    +0.176 C 
BRANCH   6   8
ATOM      7  C   GLY A   5     -15.514 -27.902   3.744  0.00  0.00    +0.243 C 
ATOM      8  N   GLY A   6     -14.237 -28.262   3.655  0.00  0.00    -0.295 N 
ATOM      9  H   GLY A   6     -13.870 -29.026   4.258  0.00  0.00    +0.150 HD
ATOM     10  O   GLY A   5     -16.048 -27.100   2.963  0.00  0.00    -0.273 OA
BRANCH   7  11
ATOM     11  CA  GLY A   5     -16.310 -28.562   4.833  0.00  0.00    +0.176 C 
BRANCH  11  14
ATOM     12  C   SER A   4     -18.440 -29.673   4.987  0.00  0.00    +0.243 C 
ATOM     13  O   SER A   4     -18.154 -30.132   6.102  0.00  0.00    -0.273 OA
ATOM     14  N   GLY A   5     -17.610 -28.928   4.291  0.00  0.00    -0.295 N 
ATOM     15  H   GLY A   5     -17.885 -28.597   3.344  0.00  0.00    +0.150 HD
BRANCH  12  16
ATOM     16  CA  SER A   4     -19.824 -29.869   4.387  0.00  0.00    +0.178 C 
BRANCH  16  18
ATOM     17  C   GLY A   3     -21.280 -31.789   4.270  0.00  0.00    +0.243 C 
ATOM     18  N   SER A   4     -20.470 -31.026   4.989  0.00  0.00    -0.295 N 
ATOM     19  H   SER A   4     -20.295 -31.255   5.988  0.00  0.00    +0.150 HD
ATOM     20  O   GLY A   3     -21.607 -31.514   3.117  0.00  0.00    -0.273 OA
BRANCH  17  21
ATOM     21  CA  GLY A   3     -21.793 -33.037   4.960  0.00  0.00    +0.176 C 
BRANCH  21  24
ATOM     22  C   LEU A   2     -23.480 -34.752   4.636  0.00  0.00    +0.241 C 
ATOM     23  O   LEU A   2     -23.138 -35.336   5.682  0.00  0.00    -0.273 OA
ATOM     24  N   GLY A   3     -22.854 -33.678   4.183  0.00  0.00    -0.295 N 
ATOM     25  H   GLY A   3     -23.121 -33.283   3.259  0.00  0.00    +0.150 HD
BRANCH  22  26
ATOM     26  CA  LEU A   2     -24.661 -35.255   3.803  0.00  0.00    +0.149 C 
BRANCH  26  29
ATOM     27  C   LEU A   1     -26.549 -33.732   4.090  0.00  0.00    +0.238 C 
ATOM     28  O   LEU A   1     -26.924 -34.281   5.110  0.00  0.00    -0.274 OA
ATOM     29  N   LEU A   2     -25.517 -34.161   3.383  0.00  0.00    -0.297 N 
ATOM     30  H   LEU A   2     -25.308 -33.690   2.480  0.00  0.00    +0.150 HD
BRANCH  27  31
ATOM     31  CA  LEU A   1     -27.269 -32.508   3.562  0.00  0.00    +0.145 C 
BRANCH  31  32
ATOM     32  N   LEU A   1     -28.696 -32.767   3.576  0.00  0.00    -0.238 NA
ATOM     33  H   LEU A   1     -29.312 -32.157   4.151  0.00  0.00    +0.142 HD
ENDBRANCH  31  32
BRANCH  31  34
ATOM     34  CB  LEU A   1     -26.923 -31.289   4.439  0.00  0.00    +0.026 C 
BRANCH  34  35
ATOM     35  CG  LEU A   1     -25.424 -30.892   4.512  0.00  0.00    +0.002 C 
ATOM     36  CD2 LEU A   1     -25.257 -29.966   5.715  0.00  0.00    +0.000 C 
ATOM     37  CD1 LEU A   1     -25.005 -30.191   3.261  0.00  0.00    +0.000 C 
ENDBRANCH  34  35
ENDBRANCH  31  34
ENDBRANCH  27  31
ENDBRANCH  26  29
BRANCH  26  38
ATOM     38  CB  LEU A   2     -24.129 -36.022   2.574  0.00  0.00    +0.029 C 
BRANCH  38  39
ATOM     39  CG  LEU A   2     -25.132 -36.950   1.854  0.00  0.00    +0.002 C 
ATOM     40  CD2 LEU A   2     -25.502 -38.125   2.773  0.00  0.00    +0.000 C 
ATOM     41  CD1 LEU A   2     -24.559 -37.499   0.527  0.00  0.00    +0.000 C 
ENDBRANCH  38  39
ENDBRANCH  26  38
ENDBRANCH  22  26
ENDBRANCH  21  24
ENDBRANCH  17  21
ENDBRANCH  16  18
BRANCH  16  42
ATOM     42  CB  SER A   4     -20.674 -28.582   4.570  0.00  0.00    +0.166 C 
BRANCH  42  43
ATOM     43  OG  SER A   4     -20.680 -28.133   5.900  0.00  0.00    -0.380 OA
ATOM     44  H   SER A   4     -21.059 -28.837   6.483  0.00  0.00    +0.211 HD
ENDBRANCH  42  43
ENDBRANCH  16  42
ENDBRANCH  12  16
ENDBRANCH  11  14
ENDBRANCH   7  11
ENDBRANCH   6   8
ENDBRANCH   2   6
ENDBRANCH   1   3
BRANCH   1  45
ATOM     45  C   PHE A   7     -16.241 -28.970  -0.577  0.00  0.00    +0.241 C 
ATOM     46  N   GLY A   8     -16.746 -27.992   0.152  0.00  0.00    -0.295 N 
ATOM     47  H   GLY A   8     -16.219 -27.630   0.972  0.00  0.00    +0.150 HD
ATOM     48  O   PHE A   7     -16.844 -29.425  -1.552  0.00  0.00    -0.273 OA
BRANCH  46  49
ATOM     49  CA  GLY A   8     -18.054 -27.413  -0.195  0.00  0.00    +0.176 C 
BRANCH  49  50
ATOM     50  C   GLY A   8     -19.184 -28.039   0.620  0.00  0.00    +0.243 C 
ATOM     51  O   GLY A   8     -18.959 -28.496   1.743  0.00  0.00    -0.273 OA
ATOM     52  N   SER A   9     -20.384 -28.100   0.039  0.00  0.00    -0.295 N 
ATOM     53  H   SER A   9     -20.487 -27.744  -0.933  0.00  0.00    +0.150 HD
BRANCH  52  54
ATOM     54  CA  SER A   9     -21.573 -28.654   0.723  0.00  0.00    +0.178 C 
BRANCH  54  55
ATOM     55  C   SER A   9     -22.130 -29.790  -0.139  0.00  0.00    +0.243 C 
ATOM     56  N   VAL A  10     -22.245 -30.994   0.426  0.00  0.00    -0.297 N 
ATOM     57  H   VAL A  10     -22.012 -31.114   1.432  0.00  0.00    +0.150 HD
ATOM     58  O   SER A   9     -22.396 -29.589  -1.341  0.00  0.00    -0.273 OA
BRANCH  56  59
ATOM     59  CA  VAL A  10     -22.698 -32.153  -0.358  0.00  0.00    +0.149 C 
BRANCH  59  60
ATOM     60  C   VAL A  10     -24.053 -32.667   0.148  0.00  0.00    +0.241 C 
ATOM     61  O   VAL A  10     -24.208 -32.955   1.351  0.00  0.00    -0.273 OA
ATOM     62  N   TYR A  11     -25.024 -32.767  -0.763  0.00  0.00    -0.297 N 
ATOM     63  H   TYR A  11     -24.805 -32.476  -1.737  0.00  0.00    +0.150 HD
BRANCH  62  64
ATOM     64  CA  TYR A  11     -26.377 -33.259  -0.486  0.00  0.00    +0.153 C 
BRANCH  64  65
ATOM     65  C   TYR A  11     -26.608 -34.620  -1.130  0.00  0.00    +0.241 C 
ATOM     66  N   SER A  12     -27.419 -35.417  -0.458  0.00  0.00    -0.295 N 
ATOM     67  H   SER A  12     -27.704 -35.147   0.505  0.00  0.00    +0.150 HD
ATOM     68  O   TYR A  11     -26.021 -34.957  -2.176  0.00  0.00    -0.273 OA
BRANCH  66  69
ATOM     69  CA  SER A  12     -27.925 -36.655  -1.016  0.00  0.00    +0.178 C 
BRANCH  69  70
ATOM     70  C   SER A  12     -28.919 -36.237  -2.083  0.00  0.00    +0.243 C 
ATOM     71  O   SER A  12     -29.619 -35.264  -1.911  0.00  0.00    -0.273 OA
ATOM     72  N   GLY A  13     -29.001 -36.969  -3.176  0.00  0.00    -0.296 N 
ATOM     73  H   GLY A  13     -28.336 -37.756  -3.316  0.00  0.00    +0.150 HD
BRANCH  72  74
ATOM     74  CA  GLY A  13     -30.010 -36.693  -4.193  0.00  0.00    +0.163 C 
BRANCH  74  75
ATOM     75  C   GLY A  13     -30.338 -37.964  -4.934  0.00  0.00    +0.229 C 
ATOM     76  O   GLY A  13     -29.724 -39.005  -4.713  0.00  0.00    -0.286 OA
ENDBRANCH  74  75
ENDBRANCH  72  74
ENDBRANCH  69  70
BRANCH  69  77
ATOM     77  CB  SER A  12     -28.671 -37.420   0.098  0.00  0.00    +0.166 C 
BRANCH  77  78
ATOM     78  OG  SER A  12     -28.998 -38.721  -0.319  0.00  0.00    -0.380 OA
ATOM     79  H   SER A  12     -29.581 -38.674  -1.118  0.00  0.00    +0.211 HD
ENDBRANCH  77  78
ENDBRANCH  69  77
ENDBRANCH  66  69
ENDBRANCH  64  65
BRANCH  64  80
ATOM     80  CB  TYR A  11     -27.448 -32.281  -0.985  0.00  0.00    +0.055 C 
BRANCH  80  81
ATOM     81  CG  TYR A  11     -27.380 -30.897  -0.359  0.00  0.00    -0.020 A 
ATOM     82  CD2 TYR A  11     -28.224 -30.563   0.695  0.00  0.00    -0.001 A 
ATOM     83  CE2 TYR A  11     -28.215 -29.295   1.280  0.00  0.00    +0.036 A 
ATOM     84  CZ  TYR A  11     -27.285 -28.338   0.835  0.00  0.00    +0.134 A 
ATOM     85  CE1 TYR A  11     -26.444 -28.621  -0.215  0.00  0.00    +0.036 A 
ATOM     86  CD1 TYR A  11     -26.466 -29.918  -0.829  0.00  0.00    -0.001 A 
BRANCH  84  87
ATOM     87  OH  TYR A  11     -27.304 -27.077   1.428  0.00  0.00    -0.506 OA
ATOM     88  HH  TYR A  11     -27.969 -27.068   2.161  0.00  0.00    +0.292 HD
ENDBRANCH  84  87
ENDBRANCH  80  81
ENDBRANCH  64  80
ENDBRANCH  62  64
ENDBRANCH  59  60
BRANCH  59  89
ATOM     89  CB  VAL A  10     -21.689 -33.329  -0.315  0.00  0.00    +0.027 C 
ATOM     90  CG2 VAL A  10     -20.240 -32.892  -0.687  0.00  0.00    +0.002 C 
ATOM     91  CG1 VAL A  10     -22.139 -34.451  -1.276  0.00  0.00    +0.002 C 
ENDBRANCH  59  89
ENDBRANCH  56  59
ENDBRANCH  54  55
BRANCH  54  92
ATOM     92  CB  SER A   9     -22.625 -27.557   0.981  0.00  0.00    +0.166 C 
BRANCH  92  93
ATOM     93  OG  SER A   9     -22.193 -26.615   1.972  0.00  0.00    -0.380 OA
ATOM     94  H   SER A   9     -21.359 -26.177   1.668  0.00  0.00    +0.211 HD
ENDBRANCH  92  93
ENDBRANCH  54  92
ENDBRANCH  52  54
ENDBRANCH  49  50
ENDBRANCH  46  49
ENDBRANCH   1  45
BRANCH   1  95
ATOM     95  CB  PHE A   7     -15.003 -31.118  -0.068  0.00  0.00    +0.055 C 
BRANCH  95  96
ATOM     96  CG  PHE A   7     -15.858 -31.600   1.092  0.00  0.00    -0.020 A 
ATOM     97  CD2 PHE A   7     -15.275 -31.889   2.342  0.00  0.00    -0.004 A 
ATOM     98  CE2 PHE A   7     -16.068 -32.291   3.448  0.00  0.00    -0.000 A 
ATOM     99  CZ  PHE A   7     -17.433 -32.439   3.296  0.00  0.00    -0.000 A 
ATOM    100  CE1 PHE A   7     -18.048 -32.143   2.063  0.00  0.00    -0.000 A 
ATOM    101  CD1 PHE A   7     -17.260 -31.752   0.950  0.00  0.00    -0.004 A 
ENDBRANCH  95  96
ENDBRANCH   1  95
TORSDOF 42
REMARK  Name = ../refined-set-2016/1xws/1xws_pocket.pdb
REMARK  202 active torsions:
REMARK  status: ('A' for Active; 'I' for Inactive)
REMARK    1  A    between atoms: _1  and  _3
REMARK    2  A    between atoms: _3  and  _4
REMARK    3  A    between atoms: _3  and  _6
REMARK    4  A    between atoms: _6  and  _7
REMARK    5  A    between atoms: _10  and  _12
REMARK    6  A    between atoms: _12  and  _13
REMARK    7  A    between atoms: _12  and  _15
REMARK    8  A    between atoms: _15  and  _16
REMARK    9  A    between atoms: _19  and  _21
REMARK   10  A    between atoms: _21  and  _22
REMARK   11  A    between atoms: _24  and  _26
REMARK   12  A    between atoms: _26  and  _27
REMARK   13  A    between atoms: _26  and  _29
REMARK   14  A    between atoms: _29  and  _30
REMARK   15  A    between atoms: _32  and  _34
REMARK   16  A    between atoms: _34  and  _35
REMARK   17  A    between atoms: _37  and  _39
REMARK   18  A    between atoms: _39  and  _40
REMARK   19  A    between atoms: _42  and  _44
REMARK   20  A    between atoms: _44  and  _45
REMARK   21  A    between atoms: _44  and  _47
REMARK   22  A    between atoms: _47  and  _48
REMARK   23  A    between atoms: _54  and  _56
REMARK   24  A    between atoms: _56  and  _57
REMARK   25  A    between atoms: _59  and  _61
REMARK   26  A    between atoms: _61  and  _62
REMARK   27  A    between atoms: _61  and  _64
REMARK   28  A    between atoms: _64  and  _65
REMARK   29  A    between atoms: _67  and  _69
REMARK   30  A    between atoms: _69  and  _70
REMARK   31  A    between atoms: _69  and  _72
REMARK   32  A    between atoms: _75  and  _77
REMARK   33  A    between atoms: _77  and  _78
REMARK   34  A    between atoms: _77  and  _80
REMARK   35  A    between atoms: _80  and  _81
REMARK   36  A    between atoms: _86  and  _87
REMARK   37  A    between atoms: _89  and  _91
REMARK   38  A    between atoms: _91  and  _92
REMARK   39  A    between atoms: _91  and  _94
REMARK   40  A    between atoms: _94  and  _95
REMARK   41  A    between atoms: _97  and  _99
REMARK   42  A    between atoms: _99  and  _100
REMARK   43  A    between atoms: _103  and  _104
REMARK   44  A    between atoms: _109  and  _111
REMARK   45  A    between atoms: _111  and  _112
REMARK   46  A    between atoms: _111  and  _114
REMARK   47  A    between atoms: _117  and  _119
REMARK   48  A    between atoms: _119  and  _120
REMARK   49  A    between atoms: _123  and  _125
REMARK   50  A    between atoms: _125  and  _126
REMARK   51  A    between atoms: _125  and  _128
REMARK   52  A    between atoms: _128  and  _129
REMARK   53  A    between atoms: _132  and  _134
REMARK   54  A    between atoms: _134  and  _135
REMARK   55  A    between atoms: _134  and  _137
REMARK   56  A    between atoms: _137  and  _138
REMARK   57  A    between atoms: _138  and  _139
REMARK   58  A    between atoms: _139  and  _140
REMARK   59  A    between atoms: _140  and  _141
REMARK   60  A    between atoms: _145  and  _147
REMARK   61  A    between atoms: _147  and  _148
REMARK   62  A    between atoms: _147  and  _150
REMARK   63  A    between atoms: _150  and  _151
REMARK   64  A    between atoms: _156  and  _158
REMARK   65  A    between atoms: _158  and  _159
REMARK   66  A    between atoms: _158  and  _161
REMARK   67  A    between atoms: _164  and  _166
REMARK   68  A    between atoms: _166  and  _167
REMARK   69  A    between atoms: _166  and  _169
REMARK   70  A    between atoms: _169  and  _170
REMARK   71  A    between atoms: _170  and  _171
REMARK   72  A    between atoms: _174  and  _176
REMARK   73  A    between atoms: _176  and  _177
REMARK   74  A    between atoms: _176  and  _179
REMARK   75  A    between atoms: _179  and  _180
REMARK   76  A    between atoms: _183  and  _185
REMARK   77  A    between atoms: _185  and  _186
REMARK   78  A    between atoms: _185  and  _188
REMARK   79  A    between atoms: _191  and  _193
REMARK   80  A    between atoms: _193  and  _194
REMARK   81  A    between atoms: _193  and  _196
REMARK   82  A    between atoms: _196  and  _197
REMARK   83  A    between atoms: _200  and  _202
REMARK   84  A    between atoms: _202  and  _203
REMARK   85  A    between atoms: _202  and  _205
REMARK   86  A    between atoms: _205  and  _206
REMARK   87  A    between atoms: _206  and  _207
REMARK   88  A    between atoms: _207  and  _208
REMARK   89  A    between atoms: _217  and  _219
REMARK   90  A    between atoms: _219  and  _220
REMARK   91  A    between atoms: _219  and  _222
REMARK   92  A    between atoms: _222  and  _223
REMARK   93  A    between atoms: _226  and  _228
REMARK   94  A    between atoms: _228  and  _229
REMARK   95  A    between atoms: _228  and  _231
REMARK   96  A    between atoms: _231  and  _232
REMARK   97  A    between atoms: _235  and  _237
REMARK   98  A    between atoms: _237  and  _238
REMARK   99  A    between atoms: _237  and  _240
REMARK  100  A    between atoms: _240  and  _241
REMARK  101  A    between atoms: _244  and  _246
REMARK  102  A    between atoms: _246  and  _247
REMARK  103  A    between atoms: _246  and  _249
REMARK  104  A    between atoms: _249  and  _250
REMARK  105  A    between atoms: _253  and  _255
REMARK  106  A    between atoms: _255  and  _256
REMARK  107  A    between atoms: _255  and  _258
REMARK  108  A    between atoms: _258  and  _259
REMARK  109  A    between atoms: _259  and  _260
REMARK  110  A    between atoms: _263  and  _265
REMARK  111  A    between atoms: _265  and  _266
REMARK  112  A    between atoms: _265  and  _268
REMARK  113  A    between atoms: _268  and  _269
REMARK  114  A    between atoms: _269  and  _270
REMARK  115  A    between atoms: _270  and  _271
REMARK  116  A    between atoms: _281  and  _282
REMARK  117  A    between atoms: _287  and  _289
REMARK  118  A    between atoms: _289  and  _290
REMARK  119  A    between atoms: _289  and  _292
REMARK  120  A    between atoms: _292  and  _293
REMARK  121  A    between atoms: _293  and  _294
REMARK  122  A    between atoms: _297  and  _299
REMARK  123  A    between atoms: _299  and  _300
REMARK  124  A    between atoms: _299  and  _302
REMARK  125  A    between atoms: _305  and  _307
REMARK  126  A    between atoms: _307  and  _308
REMARK  127  A    between atoms: _307  and  _310
REMARK  128  A    between atoms: _310  and  _311
REMARK  129  A    between atoms: _311  and  _312
REMARK  130  A    between atoms: _317  and  _319
REMARK  131  A    between atoms: _319  and  _320
REMARK  132  A    between atoms: _319  and  _322
REMARK  133  A    between atoms: _322  and  _323
REMARK  134  A    between atoms: _326  and  _328
REMARK  135  A    between atoms: _328  and  _329
REMARK  136  A    between atoms: _328  and  _331
REMARK  137  A    between atoms: _331  and  _332
REMARK  138  A    between atoms: _338  and  _340
REMARK  139  A    between atoms: _340  and  _341
REMARK  140  A    between atoms: _340  and  _343
REMARK  141  A    between atoms: _343  and  _344
REMARK  142  A    between atoms: _347  and  _349
REMARK  143  A    between atoms: _349  and  _350
REMARK  144  A    between atoms: _349  and  _352
REMARK  145  A    between atoms: _352  and  _353
REMARK  146  A    between atoms: _353  and  _354
REMARK  147  A    between atoms: _354  and  _355
REMARK  148  A    between atoms: _355  and  _356
REMARK  149  A    between atoms: _360  and  _362
REMARK  150  A    between atoms: _362  and  _363
REMARK  151  A    between atoms: _362  and  _365
REMARK  152  A    between atoms: _365  and  _366
REMARK  153  A    between atoms: _369  and  _371
REMARK  154  A    between atoms: _371  and  _372
REMARK  155  A    between atoms: _371  and  _374
REMARK  156  A    between atoms: _374  and  _375
REMARK  157  A    between atoms: _375  and  _376
REMARK  158  A    between atoms: _379  and  _381
REMARK  159  A    between atoms: _381  and  _382
REMARK  160  A    between atoms: _381  and  _384
REMARK  161  A    between atoms: _384  and  _385
REMARK  162  A    between atoms: _390  and  _392
REMARK  163  A    between atoms: _392  and  _393
REMARK  164  A    between atoms: _392  and  _395
REMARK  165  A    between atoms: _395  and  _396
REMARK  166  A    between atoms: _399  and  _401
REMARK  167  A    between atoms: _401  and  _402
REMARK  168  A    between atoms: _401  and  _404
REMARK  169  A    between atoms: _404  and  _405
REMARK  170  A    between atoms: _408  and  _410
REMARK  171  A    between atoms: _410  and  _411
REMARK  172  A    between atoms: _410  and  _413
REMARK  173  A    between atoms: _413  and  _414
REMARK  174  A    between atoms: _417  and  _419
REMARK  175  A    between atoms: _419  and  _420
REMARK  176  A    between atoms: _419  and  _422
REMARK  177  A    between atoms: _422  and  _423
REMARK  178  A    between atoms: _423  and  _424
REMARK  179  A    between atoms: _424  and  _425
REMARK  180  A    between atoms: _425  and  _426
REMARK  181  A    between atoms: _430  and  _432
REMARK  182  A    between atoms: _432  and  _433
REMARK  183  A    between atoms: _432  and  _435
REMARK  184  A    between atoms: _435  and  _436
REMARK  185  A    between atoms: _439  and  _441
REMARK  186  A    between atoms: _441  and  _442
REMARK  187  A    between atoms: _441  and  _444
REMARK  188  A    between atoms: _444  and  _445
REMARK  189  A    between atoms: _448  and  _450
REMARK  190  A    between atoms: _450  and  _451
REMARK  191  A    between atoms: _450  and  _453
REMARK  192  A    between atoms: _453  and  _454
REMARK  193  A    between atoms: _457  and  _459
REMARK  194  A    between atoms: _459  and  _460
REMARK  195  A    between atoms: _459  and  _462
REMARK  196  A    between atoms: _462  and  _463
REMARK  197  A    between atoms: _469  and  _471
REMARK  198  A    between atoms: _471  and  _472
REMARK  199  A    between atoms: _474  and  _476
REMARK  200  A    between atoms: _476  and  _477
REMARK  201  A    between atoms: _476  and  _479
REMARK  202  A    between atoms: _479  and  _480
REMARK                            x       y       z     vdW  Elec       q    Type
REMARK                         _______ _______ _______ _____ _____    ______ ____
ROOT
ATOM      1  C   ILE A   4     -24.016 -32.154  -4.401  0.00  0.00    +0.241 C 
ATOM      2  O   ILE A   4     -24.352 -31.793  -3.274  0.00  0.00    -0.273 OA
ATOM      3  N   LYS A   5     -22.895 -31.755  -4.997  0.00  0.00    -0.297 N 
ATOM      4  H   LYS A   5     -22.731 -32.021  -5.989  0.00  0.00    +0.150 HD
ENDROOT
BRANCH   3   5
ATOM      5  CA  LYS A   5     -21.881 -30.951  -4.301  0.00  0.00    +0.149 C 
BRANCH   5   6
ATOM      6  C   LYS A   5     -21.878 -29.506  -4.813  0.00  0.00    +0.241 C 
ATOM      7  N   HIS A   6     -21.969 -28.542  -3.891  0.00  0.00    -0.297 N 
ATOM      8  H   HIS A   6     -22.030 -28.829  -2.893  0.00  0.00    +0.150 HD
ATOM      9  O   LYS A   5     -21.817 -29.280  -6.045  0.00  0.00    -0.273 OA
BRANCH   7  10
ATOM     10  CA  HIS A   6     -21.988 -27.107  -4.192  0.00  0.00    +0.155 C 
BRANCH  10  11
ATOM     11  C   HIS A   6     -20.731 -26.457  -3.641  0.00  0.00    +0.241 C 
ATOM     12  O   HIS A   6     -20.340 -26.747  -2.506  0.00  0.00    -0.273 OA
ATOM     13  N   VAL A   7     -20.128 -25.543  -4.417  0.00  0.00    -0.298 N 
ATOM     14  H   VAL A   7     -20.482 -25.380  -5.381  0.00  0.00    +0.150 HD
BRANCH  13  15
ATOM     15  CA  VAL A   7     -18.972 -24.764  -3.930  0.00  0.00    +0.137 C 
BRANCH  15  16
ATOM     16  CB  VAL A   7     -17.584 -25.435  -4.318  0.00  0.00    +0.026 C 
ATOM     17  CG2 VAL A   7     -16.389 -24.526  -3.944  0.00  0.00    +0.002 C 
ATOM     18  CG1 VAL A   7     -17.549 -25.795  -5.779  0.00  0.00    +0.002 C 
ENDBRANCH  15  16
BRANCH  15  19
ATOM     19  C   VAL A   7     -19.114 -23.322  -4.417  0.00  0.00    +0.227 C 
ATOM     20  O   VAL A   7     -19.435 -23.096  -5.583  0.00  0.00    -0.286 OA
ENDBRANCH  15  19
ENDBRANCH  13  15
ENDBRANCH  10  11
BRANCH  10  21
ATOM     21  CB  HIS A   6     -23.152 -26.432  -3.492  0.00  0.00    +0.076 C 
BRANCH  21  22
ATOM     22  CG  HIS A   6     -24.490 -26.919  -3.922  0.00  0.00    +0.082 A 
ATOM     23  CD2 HIS A   6     -25.166 -28.058  -3.644  0.00  0.00    +0.115 A 
ATOM     24  NE2 HIS A   6     -26.383 -27.971  -4.281  0.00  0.00    -0.221 NA
ATOM     25  CE1 HIS A   6     -26.435 -26.833  -4.945  0.00  0.00    +0.199 A 
ATOM     26  ND1 HIS A   6     -25.312 -26.173  -4.727  0.00  0.00    -0.227 NA
ENDBRANCH  21  22
ENDBRANCH  10  21
ENDBRANCH   7  10
ENDBRANCH   5   6
BRANCH   5  27
ATOM     27  CB  LYS A   5     -20.516 -31.584  -4.561  0.00  0.00    +0.029 C 
BRANCH  27  28
ATOM     28  CG  LYS A   5     -19.312 -30.788  -3.971  0.00  0.00    +0.000 C 
BRANCH  28  29
ATOM     29  CD  LYS A   5     -18.111 -30.923  -4.860  0.00  0.00    -0.024 C 
BRANCH  29  30
ATOM     30  CE  LYS A   5     -17.328 -29.636  -4.894  0.00  0.00    -0.086 C 
BRANCH  30  31
ATOM     31  NZ  LYS A   5     -16.126 -29.946  -4.121  0.00  0.00    +0.380 N 
ATOM     32  HZ1 LYS A   5     -16.397 -30.219  -3.155  0.00  0.00    -0.089 HD
ATOM     33  HZ2 LYS A   5     -15.512 -29.107  -4.086  0.00  0.00    -0.089 HD
ATOM     34  HZ3 LYS A   5     -15.617 -30.731  -4.574  0.00  0.00    -0.089 HD
ENDBRANCH  30  31
ENDBRANCH  29  30
ENDBRANCH  28  29
ENDBRANCH  27  28
ENDBRANCH   5  27
ENDBRANCH   3   5
BRANCH   1  35
ATOM     35  CA  ILE A   4     -24.894 -33.140  -5.190  0.00  0.00    +0.149 C 
BRANCH  35  37
ATOM     36  C   ALA A   3     -24.242 -35.474  -5.112  0.00  0.00    +0.241 C 
ATOM     37  N   ILE A   4     -24.784 -34.424  -4.515  0.00  0.00    -0.297 N 
ATOM     38  H   ILE A   4     -25.139 -34.519  -3.542  0.00  0.00    +0.150 HD
ATOM     39  O   ALA A   3     -23.677 -35.416  -6.199  0.00  0.00    -0.273 OA
BRANCH  36  40
ATOM     40  CA  ALA A   3     -24.372 -36.806  -4.376  0.00  0.00    +0.149 C 
ATOM     41  CB  ALA A   3     -23.031 -37.215  -3.711  0.00  0.00    +0.031 C 
BRANCH  40  44
ATOM     42  C   VAL A   2     -25.969 -38.443  -5.255  0.00  0.00    +0.241 C 
ATOM     43  O   VAL A   2     -26.730 -38.378  -4.284  0.00  0.00    -0.273 OA
ATOM     44  N   ALA A   3     -24.807 -37.807  -5.335  0.00  0.00    -0.297 N 
ATOM     45  H   ALA A   3     -24.174 -38.038  -6.127  0.00  0.00    +0.150 HD
BRANCH  42  46
ATOM     46  CA  VAL A   2     -26.329 -39.280  -6.495  0.00  0.00    +0.148 C 
BRANCH  46  48
ATOM     47  C   PRO A   1     -27.387 -41.487  -6.510  0.00  0.00    +0.239 C 
ATOM     48  N   VAL A   2     -27.445 -40.195  -6.215  0.00  0.00    -0.297 N 
ATOM     49  H   VAL A   2     -28.307 -39.818  -5.772  0.00  0.00    +0.150 HD
ATOM     50  O   PRO A   1     -26.477 -41.954  -7.166  0.00  0.00    -0.274 OA
BRANCH  47  52
ATOM     51  N   PRO A   1     -29.184 -43.153  -7.136  0.00  0.00    -0.210 NA
ATOM     52  CA  PRO A   1     -28.595 -42.363  -6.044  0.00  0.00    +0.149 C 
ATOM     53  CB  PRO A   1     -28.170 -43.423  -5.017  0.00  0.00    +0.028 C 
ATOM     54  CG  PRO A   1     -28.119 -44.699  -5.783  0.00  0.00    +0.021 C 
ATOM     55  CD  PRO A   1     -29.128 -44.602  -6.857  0.00  0.00    +0.089 C 
ENDBRANCH  47  52
ENDBRANCH  46  48
BRANCH  46  56
ATOM     56  CB  VAL A   2     -26.606 -38.323  -7.704  0.00  0.00    +0.027 C 
ATOM     57  CG2 VAL A   2     -27.729 -37.371  -7.387  0.00  0.00    +0.002 C 
ATOM     58  CG1 VAL A   2     -26.899 -39.106  -8.982  0.00  0.00    +0.002 C 
ENDBRANCH  46  56
ENDBRANCH  42  46
ENDBRANCH  40  44
ENDBRANCH  36  40
ENDBRANCH  35  37
BRANCH  35  59
ATOM     59  CB  ILE A   4     -26.359 -32.651  -5.287  0.00  0.00    +0.027 C 
ATOM     60  CG2 ILE A   4     -26.447 -31.294  -6.054  0.00  0.00    +0.002 C 
BRANCH  59  61
ATOM     61  CG1 ILE A   4     -27.276 -33.722  -5.944  0.00  0.00    +0.002 C 
ATOM     62  CD1 ILE A   4     -28.723 -33.368  -5.938  0.00  0.00    +0.000 C 
ENDBRANCH  59  61
ENDBRANCH  35  59
ENDBRANCH   1  35
TORSDOF 24
REMARK  Name = ../refined-set-2016/1xws/1xws_pocket.pdb
REMARK  202 active torsions:
REMARK  status: ('A' for Active; 'I' for Inactive)
REMARK    1  A    between atoms: _1  and  _3
REMARK    2  A    between atoms: _3  and  _4
REMARK    3  A    between atoms: _3  and  _6
REMARK    4  A    between atoms: _6  and  _7
REMARK    5  A    between atoms: _10  and  _12
REMARK    6  A    between atoms: _12  and  _13
REMARK    7  A    between atoms: _12  and  _15
REMARK    8  A    between atoms: _15  and  _16
REMARK    9  A    between atoms: _19  and  _21
REMARK   10  A    between atoms: _21  and  _22
REMARK   11  A    between atoms: _24  and  _26
REMARK   12  A    between atoms: _26  and  _27
REMARK   13  A    between atoms: _26  and  _29
REMARK   14  A    between atoms: _29  and  _30
REMARK   15  A    between atoms: _32  and  _34
REMARK   16  A    between atoms: _34  and  _35
REMARK   17  A    between atoms: _37  and  _39
REMARK   18  A    between atoms: _39  and  _40
REMARK   19  A    between atoms: _42  and  _44
REMARK   20  A    between atoms: _44  and  _45
REMARK   21  A    between atoms: _44  and  _47
REMARK   22  A    between atoms: _47  and  _48
REMARK   23  A    between atoms: _54  and  _56
REMARK   24  A    between atoms: _56  and  _57
REMARK   25  A    between atoms: _59  and  _61
REMARK   26  A    between atoms: _61  and  _62
REMARK   27  A    between atoms: _61  and  _64
REMARK   28  A    between atoms: _64  and  _65
REMARK   29  A    between atoms: _67  and  _69
REMARK   30  A    between atoms: _69  and  _70
REMARK   31  A    between atoms: _69  and  _72
REMARK   32  A    between atoms: _75  and  _77
REMARK   33  A    between atoms: _77  and  _78
REMARK   34  A    between atoms: _77  and  _80
REMARK   35  A    between atoms: _80  and  _81
REMARK   36  A    between atoms: _86  and  _87
REMARK   37  A    between atoms: _89  and  _91
REMARK   38  A    between atoms: _91  and  _92
REMARK   39  A    between atoms: _91  and  _94
REMARK   40  A    between atoms: _94  and  _95
REMARK   41  A    between atoms: _97  and  _99
REMARK   42  A    between atoms: _99  and  _100
REMARK   43  A    between atoms: _103  and  _104
REMARK   44  A    between atoms: _109  and  _111
REMARK   45  A    between atoms: _111  and  _112
REMARK   46  A    between atoms: _111  and  _114
REMARK   47  A    between atoms: _117  and  _119
REMARK   48  A    between atoms: _119  and  _120
REMARK   49  A    between atoms: _123  and  _125
REMARK   50  A    between atoms: _125  and  _126
REMARK   51  A    between atoms: _125  and  _128
REMARK   52  A    between atoms: _128  and  _129
REMARK   53  A    between atoms: _132  and  _134
REMARK   54  A    between atoms: _134  and  _135
REMARK   55  A    between atoms: _134  and  _137
REMARK   56  A    between atoms: _137  and  _138
REMARK   57  A    between atoms: _138  and  _139
REMARK   58  A    between atoms: _139  and  _140
REMARK   59  A    between atoms: _140  and  _141
REMARK   60  A    between atoms: _145  and  _147
REMARK   61  A    between atoms: _147  and  _148
REMARK   62  A    between atoms: _147  and  _150
REMARK   63  A    between atoms: _150  and  _151
REMARK   64  A    between atoms: _156  and  _158
REMARK   65  A    between atoms: _158  and  _159
REMARK   66  A    between atoms: _158  and  _161
REMARK   67  A    between atoms: _164  and  _166
REMARK   68  A    between atoms: _166  and  _167
REMARK   69  A    between atoms: _166  and  _169
REMARK   70  A    between atoms: _169  and  _170
REMARK   71  A    between atoms: _170  and  _171
REMARK   72  A    between atoms: _174  and  _176
REMARK   73  A    between atoms: _176  and  _177
REMARK   74  A    between atoms: _176  and  _179
REMARK   75  A    between atoms: _179  and  _180
REMARK   76  A    between atoms: _183  and  _185
REMARK   77  A    between atoms: _185  and  _186
REMARK   78  A    between atoms: _185  and  _188
REMARK   79  A    between atoms: _191  and  _193
REMARK   80  A    between atoms: _193  and  _194
REMARK   81  A    between atoms: _193  and  _196
REMARK   82  A    between atoms: _196  and  _197
REMARK   83  A    between atoms: _200  and  _202
REMARK   84  A    between atoms: _202  and  _203
REMARK   85  A    between atoms: _202  and  _205
REMARK   86  A    between atoms: _205  and  _206
REMARK   87  A    between atoms: _206  and  _207
REMARK   88  A    between atoms: _207  and  _208
REMARK   89  A    between atoms: _217  and  _219
REMARK   90  A    between atoms: _219  and  _220
REMARK   91  A    between atoms: _219  and  _222
REMARK   92  A    between atoms: _222  and  _223
REMARK   93  A    between atoms: _226  and  _228
REMARK   94  A    between atoms: _228  and  _229
REMARK   95  A    between atoms: _228  and  _231
REMARK   96  A    between atoms: _231  and  _232
REMARK   97  A    between atoms: _235  and  _237
REMARK   98  A    between atoms: _237  and  _238
REMARK   99  A    between atoms: _237  and  _240
REMARK  100  A    between atoms: _240  and  _241
REMARK  101  A    between atoms: _244  and  _246
REMARK  102  A    between atoms: _246  and  _247
REMARK  103  A    between atoms: _246  and  _249
REMARK  104  A    between atoms: _249  and  _250
REMARK  105  A    between atoms: _253  and  _255
REMARK  106  A    between atoms: _255  and  _256
REMARK  107  A    between atoms: _255  and  _258
REMARK  108  A    between atoms: _258  and  _259
REMARK  109  A    between atoms: _259  and  _260
REMARK  110  A    between atoms: _263  and  _265
REMARK  111  A    between atoms: _265  and  _266
REMARK  112  A    between atoms: _265  and  _268
REMARK  113  A    between atoms: _268  and  _269
REMARK  114  A    between atoms: _269  and  _270
REMARK  115  A    between atoms: _270  and  _271
REMARK  116  A    between atoms: _281  and  _282
REMARK  117  A    between atoms: _287  and  _289
REMARK  118  A    between atoms: _289  and  _290
REMARK  119  A    between atoms: _289  and  _292
REMARK  120  A    between atoms: _292  and  _293
REMARK  121  A    between atoms: _293  and  _294
REMARK  122  A    between atoms: _297  and  _299
REMARK  123  A    between atoms: _299  and  _300
REMARK  124  A    between atoms: _299  and  _302
REMARK  125  A    between atoms: _305  and  _307
REMARK  126  A    between atoms: _307  and  _308
REMARK  127  A    between atoms: _307  and  _310
REMARK  128  A    between atoms: _310  and  _311
REMARK  129  A    between atoms: _311  and  _312
REMARK  130  A    between atoms: _317  and  _319
REMARK  131  A    between atoms: _319  and  _320
REMARK  132  A    between atoms: _319  and  _322
REMARK  133  A    between atoms: _322  and  _323
REMARK  134  A    between atoms: _326  and  _328
REMARK  135  A    between atoms: _328  and  _329
REMARK  136  A    between atoms: _328  and  _331
REMARK  137  A    between atoms: _331  and  _332
REMARK  138  A    between atoms: _338  and  _340
REMARK  139  A    between atoms: _340  and  _341
REMARK  140  A    between atoms: _340  and  _343
REMARK  141  A    between atoms: _343  and  _344
REMARK  142  A    between atoms: _347  and  _349
REMARK  143  A    between atoms: _349  and  _350
REMARK  144  A    between atoms: _349  and  _352
REMARK  145  A    between atoms: _352  and  _353
REMARK  146  A    between atoms: _353  and  _354
REMARK  147  A    between atoms: _354  and  _355
REMARK  148  A    between atoms: _355  and  _356
REMARK  149  A    between atoms: _360  and  _362
REMARK  150  A    between atoms: _362  and  _363
REMARK  151  A    between atoms: _362  and  _365
REMARK  152  A    between atoms: _365  and  _366
REMARK  153  A    between atoms: _369  and  _371
REMARK  154  A    between atoms: _371  and  _372
REMARK  155  A    between atoms: _371  and  _374
REMARK  156  A    between atoms: _374  and  _375
REMARK  157  A    between atoms: _375  and  _376
REMARK  158  A    between atoms: _379  and  _381
REMARK  159  A    between atoms: _381  and  _382
REMARK  160  A    between atoms: _381  and  _384
REMARK  161  A    between atoms: _384  and  _385
REMARK  162  A    between atoms: _390  and  _392
REMARK  163  A    between atoms: _392  and  _393
REMARK  164  A    between atoms: _392  and  _395
REMARK  165  A    between atoms: _395  and  _396
REMARK  166  A    between atoms: _399  and  _401
REMARK  167  A    between atoms: _401  and  _402
REMARK  168  A    between atoms: _401  and  _404
REMARK  169  A    between atoms: _404  and  _405
REMARK  170  A    between atoms: _408  and  _410
REMARK  171  A    between atoms: _410  and  _411
REMARK  172  A    between atoms: _410  and  _413
REMARK  173  A    between atoms: _413  and  _414
REMARK  174  A    between atoms: _417  and  _419
REMARK  175  A    between atoms: _419  and  _420
REMARK  176  A    between atoms: _419  and  _422
REMARK  177  A    between atoms: _422  and  _423
REMARK  178  A    between atoms: _423  and  _424
REMARK  179  A    between atoms: _424  and  _425
REMARK  180  A    between atoms: _425  and  _426
REMARK  181  A    between atoms: _430  and  _432
REMARK  182  A    between atoms: _432  and  _433
REMARK  183  A    between atoms: _432  and  _435
REMARK  184  A    between atoms: _435  and  _436
REMARK  185  A    between atoms: _439  and  _441
REMARK  186  A    between atoms: _441  and  _442
REMARK  187  A    between atoms: _441  and  _444
REMARK  188  A    between atoms: _444  and  _445
REMARK  189  A    between atoms: _448  and  _450
REMARK  190  A    between atoms: _450  and  _451
REMARK  191  A    between atoms: _450  and  _453
REMARK  192  A    between atoms: _453  and  _454
REMARK  193  A    between atoms: _457  and  _459
REMARK  194  A    between atoms: _459  and  _460
REMARK  195  A    between atoms: _459  and  _462
REMARK  196  A    between atoms: _462  and  _463
REMARK  197  A    between atoms: _469  and  _471
REMARK  198  A    between atoms: _471  and  _472
REMARK  199  A    between atoms: _474  and  _476
REMARK  200  A    between atoms: _476  and  _477
REMARK  201  A    between atoms: _476  and  _479
REMARK  202  A    between atoms: _479  and  _480
REMARK                            x       y       z     vdW  Elec       q    Type
REMARK                         _______ _______ _______ _____ _____    ______ ____
ROOT
ATOM      1  CA  GLU A   1     -11.768 -30.367  -9.515  0.00  0.00    +0.134 C 
ENDROOT
BRANCH   1   2
ATOM      2  N   GLU A   1     -11.117 -29.096  -9.916  0.00  0.00    -0.239 NA
ATOM      3  H   GLU A   1     -11.255 -28.241  -9.340  0.00  0.00    +0.142 HD
ENDBRANCH   1   2
BRANCH   1   4
ATOM      4  C   GLU A   1     -12.625 -30.982 -10.632  0.00  0.00    +0.224 C 
ATOM      5  O   GLU A   1     -12.586 -32.180 -10.831  0.00  0.00    -0.287 OA
ENDBRANCH   1   4
BRANCH   1   6
ATOM      6  CB  GLU A   1     -12.579 -30.174  -8.232  0.00  0.00    +0.037 C 
BRANCH   6   7
ATOM      7  CG  GLU A   1     -13.267 -31.427  -7.668  0.00  0.00    +0.116 C 
BRANCH   7   8
ATOM      8  CD  GLU A   1     -14.072 -31.100  -6.394  0.00  0.00    +0.365 C 
ATOM      9  OE2 GLU A   1     -14.780 -31.970  -5.821  0.00  0.00    -0.246 OA
ATOM     10  OE1 GLU A   1     -13.999 -29.931  -5.959  0.00  0.00    -0.246 OA
ENDBRANCH   7   8
ENDBRANCH   6   7
ENDBRANCH   1   6
TORSDOF 5
REMARK  Name = ../refined-set-2016/1xws/1xws_pocket.pdb
REMARK  202 active torsions:
REMARK  status: ('A' for Active; 'I' for Inactive)
REMARK    1  A    between atoms: _1  and  _3
REMARK    2  A    between atoms: _3  and  _4
REMARK    3  A    between atoms: _3  and  _6
REMARK    4  A    between atoms: _6  and  _7
REMARK    5  A    between atoms: _10  and  _12
REMARK    6  A    between atoms: _12  and  _13
REMARK    7  A    between atoms: _12  and  _15
REMARK    8  A    between atoms: _15  and  _16
REMARK    9  A    between atoms: _19  and  _21
REMARK   10  A    between atoms: _21  and  _22
REMARK   11  A    between atoms: _24  and  _26
REMARK   12  A    between atoms: _26  and  _27
REMARK   13  A    between atoms: _26  and  _29
REMARK   14  A    between atoms: _29  and  _30
REMARK   15  A    between atoms: _32  and  _34
REMARK   16  A    between atoms: _34  and  _35
REMARK   17  A    between atoms: _37  and  _39
REMARK   18  A    between atoms: _39  and  _40
REMARK   19  A    between atoms: _42  and  _44
REMARK   20  A    between atoms: _44  and  _45
REMARK   21  A    between atoms: _44  and  _47
REMARK   22  A    between atoms: _47  and  _48
REMARK   23  A    between atoms: _54  and  _56
REMARK   24  A    between atoms: _56  and  _57
REMARK   25  A    between atoms: _59  and  _61
REMARK   26  A    between atoms: _61  and  _62
REMARK   27  A    between atoms: _61  and  _64
REMARK   28  A    between atoms: _64  and  _65
REMARK   29  A    between atoms: _67  and  _69
REMARK   30  A    between atoms: _69  and  _70
REMARK   31  A    between atoms: _69  and  _72
REMARK   32  A    between atoms: _75  and  _77
REMARK   33  A    between atoms: _77  and  _78
REMARK   34  A    between atoms: _77  and  _80
REMARK   35  A    between atoms: _80  and  _81
REMARK   36  A    between atoms: _86  and  _87
REMARK   37  A    between atoms: _89  and  _91
REMARK   38  A    between atoms: _91  and  _92
REMARK   39  A    between atoms: _91  and  _94
REMARK   40  A    between atoms: _94  and  _95
REMARK   41  A    between atoms: _97  and  _99
REMARK   42  A    between atoms: _99  and  _100
REMARK   43  A    between atoms: _103  and  _104
REMARK   44  A    between atoms: _109  and  _111
REMARK   45  A    between atoms: _111  and  _112
REMARK   46  A    between atoms: _111  and  _114
REMARK   47  A    between atoms: _117  and  _119
REMARK   48  A    between atoms: _119  and  _120
REMARK   49  A    between atoms: _123  and  _125
REMARK   50  A    between atoms: _125  and  _126
REMARK   51  A    between atoms: _125  and  _128
REMARK   52  A    between atoms: _128  and  _129
REMARK   53  A    between atoms: _132  and  _134
REMARK   54  A    between atoms: _134  and  _135
REMARK   55  A    between atoms: _134  and  _137
REMARK   56  A    between atoms: _137  and  _138
REMARK   57  A    between atoms: _138  and  _139
REMARK   58  A    between atoms: _139  and  _140
REMARK   59  A    between atoms: _140  and  _141
REMARK   60  A    between atoms: _145  and  _147
REMARK   61  A    between atoms: _147  and  _148
REMARK   62  A    between atoms: _147  and  _150
REMARK   63  A    between atoms: _150  and  _151
REMARK   64  A    between atoms: _156  and  _158
REMARK   65  A    between atoms: _158  and  _159
REMARK   66  A    between atoms: _158  and  _161
REMARK   67  A    between atoms: _164  and  _166
REMARK   68  A    between atoms: _166  and  _167
REMARK   69  A    between atoms: _166  and  _169
REMARK   70  A    between atoms: _169  and  _170
REMARK   71  A    between atoms: _170  and  _171
REMARK   72  A    between atoms: _174  and  _176
REMARK   73  A    between atoms: _176  and  _177
REMARK   74  A    between atoms: _176  and  _179
REMARK   75  A    between atoms: _179  and  _180
REMARK   76  A    between atoms: _183  and  _185
REMARK   77  A    between atoms: _185  and  _186
REMARK   78  A    between atoms: _185  and  _188
REMARK   79  A    between atoms: _191  and  _193
REMARK   80  A    between atoms: _193  and  _194
REMARK   81  A    between atoms: _193  and  _196
REMARK   82  A    between atoms: _196  and  _197
REMARK   83  A    between atoms: _200  and  _202
REMARK   84  A    between atoms: _202  and  _203
REMARK   85  A    between atoms: _202  and  _205
REMARK   86  A    between atoms: _205  and  _206
REMARK   87  A    between atoms: _206  and  _207
REMARK   88  A    between atoms: _207  and  _208
REMARK   89  A    between atoms: _217  and  _219
REMARK   90  A    between atoms: _219  and  _220
REMARK   91  A    between atoms: _219  and  _222
REMARK   92  A    between atoms: _222  and  _223
REMARK   93  A    between atoms: _226  and  _228
REMARK   94  A    between atoms: _228  and  _229
REMARK   95  A    between atoms: _228  and  _231
REMARK   96  A    between atoms: _231  and  _232
REMARK   97  A    between atoms: _235  and  _237
REMARK   98  A    between atoms: _237  and  _238
REMARK   99  A    between atoms: _237  and  _240
REMARK  100  A    between atoms: _240  and  _241
REMARK  101  A    between atoms: _244  and  _246
REMARK  102  A    between atoms: _246  and  _247
REMARK  103  A    between atoms: _246  and  _249
REMARK  104  A    between atoms: _249  and  _250
REMARK  105  A    between atoms: _253  and  _255
REMARK  106  A    between atoms: _255  and  _256
REMARK  107  A    between atoms: _255  and  _258
REMARK  108  A    between atoms: _258  and  _259
REMARK  109  A    between atoms: _259  and  _260
REMARK  110  A    between atoms: _263  and  _265
REMARK  111  A    between atoms: _265  and  _266
REMARK  112  A    between atoms: _265  and  _268
REMARK  113  A    between atoms: _268  and  _269
REMARK  114  A    between atoms: _269  and  _270
REMARK  115  A    between atoms: _270  and  _271
REMARK  116  A    between atoms: _281  and  _282
REMARK  117  A    between atoms: _287  and  _289
REMARK  118  A    between atoms: _289  and  _290
REMARK  119  A    between atoms: _289  and  _292
REMARK  120  A    between atoms: _292  and  _293
REMARK  121  A    between atoms: _293  and  _294
REMARK  122  A    between atoms: _297  and  _299
REMARK  123  A    between atoms: _299  and  _300
REMARK  124  A    between atoms: _299  and  _302
REMARK  125  A    between atoms: _305  and  _307
REMARK  126  A    between atoms: _307  and  _308
REMARK  127  A    between atoms: _307  and  _310
REMARK  128  A    between atoms: _310  and  _311
REMARK  129  A    between atoms: _311  and  _312
REMARK  130  A    between atoms: _317  and  _319
REMARK  131  A    between atoms: _319  and  _320
REMARK  132  A    between atoms: _319  and  _322
REMARK  133  A    between atoms: _322  and  _323
REMARK  134  A    between atoms: _326  and  _328
REMARK  135  A    between atoms: _328  and  _329
REMARK  136  A    between atoms: _328  and  _331
REMARK  137  A    between atoms: _331  and  _332
REMARK  138  A    between atoms: _338  and  _340
REMARK  139  A    between atoms: _340  and  _341
REMARK  140  A    between atoms: _340  and  _343
REMARK  141  A    between atoms: _343  and  _344
REMARK  142  A    between atoms: _347  and  _349
REMARK  143  A    between atoms: _349  and  _350
REMARK  144  A    between atoms: _349  and  _352
REMARK  145  A    between atoms: _352  and  _353
REMARK  146  A    between atoms: _353  and  _354
REMARK  147  A    between atoms: _354  and  _355
REMARK  148  A    between atoms: _355  and  _356
REMARK  149  A    between atoms: _360  and  _362
REMARK  150  A    between atoms: _362  and  _363
REMARK  151  A    between atoms: _362  and  _365
REMARK  152  A    between atoms: _365  and  _366
REMARK  153  A    between atoms: _369  and  _371
REMARK  154  A    between atoms: _371  and  _372
REMARK  155  A    between atoms: _371  and  _374
REMARK  156  A    between atoms: _374  and  _375
REMARK  157  A    between atoms: _375  and  _376
REMARK  158  A    between atoms: _379  and  _381
REMARK  159  A    between atoms: _381  and  _382
REMARK  160  A    between atoms: _381  and  _384
REMARK  161  A    between atoms: _384  and  _385
REMARK  162  A    between atoms: _390  and  _392
REMARK  163  A    between atoms: _392  and  _393
REMARK  164  A    between atoms: _392  and  _395
REMARK  165  A    between atoms: _395  and  _396
REMARK  166  A    between atoms: _399  and  _401
REMARK  167  A    between atoms: _401  and  _402
REMARK  168  A    between atoms: _401  and  _404
REMARK  169  A    between atoms: _404  and  _405
REMARK  170  A    between atoms: _408  and  _410
REMARK  171  A    between atoms: _410  and  _411
REMARK  172  A    between atoms: _410  and  _413
REMARK  173  A    between atoms: _413  and  _414
REMARK  174  A    between atoms: _417  and  _419
REMARK  175  A    between atoms: _419  and  _420
REMARK  176  A    between atoms: _419  and  _422
REMARK  177  A    between atoms: _422  and  _423
REMARK  178  A    between atoms: _423  and  _424
REMARK  179  A    between atoms: _424  and  _425
REMARK  180  A    between atoms: _425  and  _426
REMARK  181  A    between atoms: _430  and  _432
REMARK  182  A    between atoms: _432  and  _433
REMARK  183  A    between atoms: _432  and  _435
REMARK  184  A    between atoms: _435  and  _436
REMARK  185  A    between atoms: _439  and  _441
REMARK  186  A    between atoms: _441  and  _442
REMARK  187  A    between atoms: _441  and  _444
REMARK  188  A    between atoms: _444  and  _445
REMARK  189  A    between atoms: _448  and  _450
REMARK  190  A    between atoms: _450  and  _451
REMARK  191  A    between atoms: _450  and  _453
REMARK  192  A    between atoms: _453  and  _454
REMARK  193  A    between atoms: _457  and  _459
REMARK  194  A    between atoms: _459  and  _460
REMARK  195  A    between atoms: _459  and  _462
REMARK  196  A    between atoms: _462  and  _463
REMARK  197  A    between atoms: _469  and  _471
REMARK  198  A    between atoms: _471  and  _472
REMARK  199  A    between atoms: _474  and  _476
REMARK  200  A    between atoms: _476  and  _477
REMARK  201  A    between atoms: _476  and  _479
REMARK  202  A    between atoms: _479  and  _480
REMARK                            x       y       z     vdW  Elec       q    Type
REMARK                         _______ _______ _______ _____ _____    ______ ____
ROOT
ATOM      1  CA  LEU A   1     -12.963 -35.504 -12.454  0.00  0.00    +0.133 C 
ENDROOT
BRANCH   1   2
ATOM      2  N   LEU A   1     -11.863 -34.523 -12.425  0.00  0.00    -0.239 NA
ATOM      3  H   LEU A   1     -12.013 -33.603 -11.964  0.00  0.00    +0.142 HD
ENDBRANCH   1   2
BRANCH   1   4
ATOM      4  C   LEU A   1     -13.355 -35.944 -13.870  0.00  0.00    +0.224 C 
ATOM      5  O   LEU A   1     -13.572 -37.141 -14.102  0.00  0.00    -0.287 OA
ENDBRANCH   1   4
BRANCH   1   6
ATOM      6  CB  LEU A   1     -14.204 -34.965 -11.713  0.00  0.00    +0.025 C 
BRANCH   6   7
ATOM      7  CG  LEU A   1     -14.145 -35.064 -10.174  0.00  0.00    +0.002 C 
ATOM      8  CD2 LEU A   1     -15.268 -34.190  -9.587  0.00  0.00    +0.000 C 
ATOM      9  CD1 LEU A   1     -14.215 -36.513  -9.673  0.00  0.00    +0.000 C 
ENDBRANCH   6   7
ENDBRANCH   1   6
TORSDOF 4
REMARK  Name = ../refined-set-2016/1xws/1xws_pocket.pdb
REMARK  202 active torsions:
REMARK  status: ('A' for Active; 'I' for Inactive)
REMARK    1  A    between atoms: _1  and  _3
REMARK    2  A    between atoms: _3  and  _4
REMARK    3  A    between atoms: _3  and  _6
REMARK    4  A    between atoms: _6  and  _7
REMARK    5  A    between atoms: _10  and  _12
REMARK    6  A    between atoms: _12  and  _13
REMARK    7  A    between atoms: _12  and  _15
REMARK    8  A    between atoms: _15  and  _16
REMARK    9  A    between atoms: _19  and  _21
REMARK   10  A    between atoms: _21  and  _22
REMARK   11  A    between atoms: _24  and  _26
REMARK   12  A    between atoms: _26  and  _27
REMARK   13  A    between atoms: _26  and  _29
REMARK   14  A    between atoms: _29  and  _30
REMARK   15  A    between atoms: _32  and  _34
REMARK   16  A    between atoms: _34  and  _35
REMARK   17  A    between atoms: _37  and  _39
REMARK   18  A    between atoms: _39  and  _40
REMARK   19  A    between atoms: _42  and  _44
REMARK   20  A    between atoms: _44  and  _45
REMARK   21  A    between atoms: _44  and  _47
REMARK   22  A    between atoms: _47  and  _48
REMARK   23  A    between atoms: _54  and  _56
REMARK   24  A    between atoms: _56  and  _57
REMARK   25  A    between atoms: _59  and  _61
REMARK   26  A    between atoms: _61  and  _62
REMARK   27  A    between atoms: _61  and  _64
REMARK   28  A    between atoms: _64  and  _65
REMARK   29  A    between atoms: _67  and  _69
REMARK   30  A    between atoms: _69  and  _70
REMARK   31  A    between atoms: _69  and  _72
REMARK   32  A    between atoms: _75  and  _77
REMARK   33  A    between atoms: _77  and  _78
REMARK   34  A    between atoms: _77  and  _80
REMARK   35  A    between atoms: _80  and  _81
REMARK   36  A    between atoms: _86  and  _87
REMARK   37  A    between atoms: _89  and  _91
REMARK   38  A    between atoms: _91  and  _92
REMARK   39  A    between atoms: _91  and  _94
REMARK   40  A    between atoms: _94  and  _95
REMARK   41  A    between atoms: _97  and  _99
REMARK   42  A    between atoms: _99  and  _100
REMARK   43  A    between atoms: _103  and  _104
REMARK   44  A    between atoms: _109  and  _111
REMARK   45  A    between atoms: _111  and  _112
REMARK   46  A    between atoms: _111  and  _114
REMARK   47  A    between atoms: _117  and  _119
REMARK   48  A    between atoms: _119  and  _120
REMARK   49  A    between atoms: _123  and  _125
REMARK   50  A    between atoms: _125  and  _126
REMARK   51  A    between atoms: _125  and  _128
REMARK   52  A    between atoms: _128  and  _129
REMARK   53  A    between atoms: _132  and  _134
REMARK   54  A    between atoms: _134  and  _135
REMARK   55  A    between atoms: _134  and  _137
REMARK   56  A    between atoms: _137  and  _138
REMARK   57  A    between atoms: _138  and  _139
REMARK   58  A    between atoms: _139  and  _140
REMARK   59  A    between atoms: _140  and  _141
REMARK   60  A    between atoms: _145  and  _147
REMARK   61  A    between atoms: _147  and  _148
REMARK   62  A    between atoms: _147  and  _150
REMARK   63  A    between atoms: _150  and  _151
REMARK   64  A    between atoms: _156  and  _158
REMARK   65  A    between atoms: _158  and  _159
REMARK   66  A    between atoms: _158  and  _161
REMARK   67  A    between atoms: _164  and  _166
REMARK   68  A    between atoms: _166  and  _167
REMARK   69  A    between atoms: _166  and  _169
REMARK   70  A    between atoms: _169  and  _170
REMARK   71  A    between atoms: _170  and  _171
REMARK   72  A    between atoms: _174  and  _176
REMARK   73  A    between atoms: _176  and  _177
REMARK   74  A    between atoms: _176  and  _179
REMARK   75  A    between atoms: _179  and  _180
REMARK   76  A    between atoms: _183  and  _185
REMARK   77  A    between atoms: _185  and  _186
REMARK   78  A    between atoms: _185  and  _188
REMARK   79  A    between atoms: _191  and  _193
REMARK   80  A    between atoms: _193  and  _194
REMARK   81  A    between atoms: _193  and  _196
REMARK   82  A    between atoms: _196  and  _197
REMARK   83  A    between atoms: _200  and  _202
REMARK   84  A    between atoms: _202  and  _203
REMARK   85  A    between atoms: _202  and  _205
REMARK   86  A    between atoms: _205  and  _206
REMARK   87  A    between atoms: _206  and  _207
REMARK   88  A    between atoms: _207  and  _208
REMARK   89  A    between atoms: _217  and  _219
REMARK   90  A    between atoms: _219  and  _220
REMARK   91  A    between atoms: _219  and  _222
REMARK   92  A    between atoms: _222  and  _223
REMARK   93  A    between atoms: _226  and  _228
REMARK   94  A    between atoms: _228  and  _229
REMARK   95  A    between atoms: _228  and  _231
REMARK   96  A    between atoms: _231  and  _232
REMARK   97  A    between atoms: _235  and  _237
REMARK   98  A    between atoms: _237  and  _238
REMARK   99  A    between atoms: _237  and  _240
REMARK  100  A    between atoms: _240  and  _241
REMARK  101  A    between atoms: _244  and  _246
REMARK  102  A    between atoms: _246  and  _247
REMARK  103  A    between atoms: _246  and  _249
REMARK  104  A    between atoms: _249  and  _250
REMARK  105  A    between atoms: _253  and  _255
REMARK  106  A    between atoms: _255  and  _256
REMARK  107  A    between atoms: _255  and  _258
REMARK  108  A    between atoms: _258  and  _259
REMARK  109  A    between atoms: _259  and  _260
REMARK  110  A    between atoms: _263  and  _265
REMARK  111  A    between atoms: _265  and  _266
REMARK  112  A    between atoms: _265  and  _268
REMARK  113  A    between atoms: _268  and  _269
REMARK  114  A    between atoms: _269  and  _270
REMARK  115  A    between atoms: _270  and  _271
REMARK  116  A    between atoms: _281  and  _282
REMARK  117  A    between atoms: _287  and  _289
REMARK  118  A    between atoms: _289  and  _290
REMARK  119  A    between atoms: _289  and  _292
REMARK  120  A    between atoms: _292  and  _293
REMARK  121  A    between atoms: _293  and  _294
REMARK  122  A    between atoms: _297  and  _299
REMARK  123  A    between atoms: _299  and  _300
REMARK  124  A    between atoms: _299  and  _302
REMARK  125  A    between atoms: _305  and  _307
REMARK  126  A    between atoms: _307  and  _308
REMARK  127  A    between atoms: _307  and  _310
REMARK  128  A    between atoms: _310  and  _311
REMARK  129  A    between atoms: _311  and  _312
REMARK  130  A    between atoms: _317  and  _319
REMARK  131  A    between atoms: _319  and  _320
REMARK  132  A    between atoms: _319  and  _322
REMARK  133  A    between atoms: _322  and  _323
REMARK  134  A    between atoms: _326  and  _328
REMARK  135  A    between atoms: _328  and  _329
REMARK  136  A    between atoms: _328  and  _331
REMARK  137  A    between atoms: _331  and  _332
REMARK  138  A    between atoms: _338  and  _340
REMARK  139  A    between atoms: _340  and  _341
REMARK  140  A    between atoms: _340  and  _343
REMARK  141  A    between atoms: _343  and  _344
REMARK  142  A    between atoms: _347  and  _349
REMARK  143  A    between atoms: _349  and  _350
REMARK  144  A    between atoms: _349  and  _352
REMARK  145  A    between atoms: _352  and  _353
REMARK  146  A    between atoms: _353  and  _354
REMARK  147  A    between atoms: _354  and  _355
REMARK  148  A    between atoms: _355  and  _356
REMARK  149  A    between atoms: _360  and  _362
REMARK  150  A    between atoms: _362  and  _363
REMARK  151  A    between atoms: _362  and  _365
REMARK  152  A    between atoms: _365  and  _366
REMARK  153  A    between atoms: _369  and  _371
REMARK  154  A    between atoms: _371  and  _372
REMARK  155  A    between atoms: _371  and  _374
REMARK  156  A    between atoms: _374  and  _375
REMARK  157  A    between atoms: _375  and  _376
REMARK  158  A    between atoms: _379  and  _381
REMARK  159  A    between atoms: _381  and  _382
REMARK  160  A    between atoms: _381  and  _384
REMARK  161  A    between atoms: _384  and  _385
REMARK  162  A    between atoms: _390  and  _392
REMARK  163  A    between atoms: _392  and  _393
REMARK  164  A    between atoms: _392  and  _395
REMARK  165  A    between atoms: _395  and  _396
REMARK  166  A    between atoms: _399  and  _401
REMARK  167  A    between atoms: _401  and  _402
REMARK  168  A    between atoms: _401  and  _404
REMARK  169  A    between atoms: _404  and  _405
REMARK  170  A    between atoms: _408  and  _410
REMARK  171  A    between atoms: _410  and  _411
REMARK  172  A    between atoms: _410  and  _413
REMARK  173  A    between atoms: _413  and  _414
REMARK  174  A    between atoms: _417  and  _419
REMARK  175  A    between atoms: _419  and  _420
REMARK  176  A    between atoms: _419  and  _422
REMARK  177  A    between atoms: _422  and  _423
REMARK  178  A    between atoms: _423  and  _424
REMARK  179  A    between atoms: _424  and  _425
REMARK  180  A    between atoms: _425  and  _426
REMARK  181  A    between atoms: _430  and  _432
REMARK  182  A    between atoms: _432  and  _433
REMARK  183  A    between atoms: _432  and  _435
REMARK  184  A    between atoms: _435  and  _436
REMARK  185  A    between atoms: _439  and  _441
REMARK  186  A    between atoms: _441  and  _442
REMARK  187  A    between atoms: _441  and  _444
REMARK  188  A    between atoms: _444  and  _445
REMARK  189  A    between atoms: _448  and  _450
REMARK  190  A    between atoms: _450  and  _451
REMARK  191  A    between atoms: _450  and  _453
REMARK  192  A    between atoms: _453  and  _454
REMARK  193  A    between atoms: _457  and  _459
REMARK  194  A    between atoms: _459  and  _460
REMARK  195  A    between atoms: _459  and  _462
REMARK  196  A    between atoms: _462  and  _463
REMARK  197  A    between atoms: _469  and  _471
REMARK  198  A    between atoms: _471  and  _472
REMARK  199  A    between atoms: _474  and  _476
REMARK  200  A    between atoms: _476  and  _477
REMARK  201  A    between atoms: _476  and  _479
REMARK  202  A    between atoms: _479  and  _480
REMARK                            x       y       z     vdW  Elec       q    Type
REMARK                         _______ _______ _______ _____ _____    ______ ____
ROOT
ATOM      1  CA  ARG A   3     -17.541 -40.509 -11.242  0.00  0.00    +0.149 C 
ENDROOT
BRANCH   1   4
ATOM      2  C   ILE A   2     -16.612 -40.952  -9.068  0.00  0.00    +0.241 C 
ATOM      3  O   ILE A   2     -15.795 -40.029  -9.202  0.00  0.00    -0.273 OA
ATOM      4  N   ARG A   3     -17.530 -41.209  -9.985  0.00  0.00    -0.297 N 
ATOM      5  H   ARG A   3     -18.256 -41.929  -9.794  0.00  0.00    +0.150 HD
BRANCH   2   6
ATOM      6  CA  ILE A   2     -16.594 -41.869  -7.827  0.00  0.00    +0.148 C 
BRANCH   6   8
ATOM      7  C   VAL A   1     -14.728 -43.243  -8.654  0.00  0.00    +0.238 C 
ATOM      8  N   ILE A   2     -15.230 -42.445  -7.699  0.00  0.00    -0.297 N 
ATOM      9  H   ILE A   2     -14.657 -42.227  -6.859  0.00  0.00    +0.150 HD
ATOM     10  O   VAL A   1     -15.451 -43.754  -9.502  0.00  0.00    -0.274 OA
BRANCH   7  11
ATOM     11  CA  VAL A   1     -13.191 -43.539  -8.657  0.00  0.00    +0.145 C 
BRANCH  11  12
ATOM     12  CB  VAL A   1     -12.364 -42.673  -9.691  0.00  0.00    +0.025 C 
ATOM     13  CG2 VAL A   1     -12.547 -41.224  -9.467  0.00  0.00    +0.002 C 
ATOM     14  CG1 VAL A   1     -10.866 -42.911  -9.554  0.00  0.00    +0.002 C 
ENDBRANCH  11  12
BRANCH  11  15
ATOM     15  N   VAL A   1     -13.014 -44.980  -8.934  0.00  0.00    -0.238 NA
ATOM     16  H   VAL A   1     -13.227 -45.328  -9.891  0.00  0.00    +0.142 HD
ENDBRANCH  11  15
ENDBRANCH   7  11
ENDBRANCH   6   8
BRANCH   6  17
ATOM     17  CB  ILE A   2     -17.085 -41.131  -6.512  0.00  0.00    +0.027 C 
ATOM     18  CG2 ILE A   2     -18.332 -40.121  -6.782  0.00  0.00    +0.002 C 
BRANCH  17  19
ATOM     19  CG1 ILE A   2     -17.367 -42.097  -5.343  0.00  0.00    +0.002 C 
ATOM     20  CD1 ILE A   2     -18.515 -43.117  -5.588  0.00  0.00    +0.000 C 
ENDBRANCH  17  19
ENDBRANCH   6  17
ENDBRANCH   2   6
ENDBRANCH   1   4
BRANCH   1  21
ATOM     21  C   ARG A   3     -18.425 -39.262 -11.210  0.00  0.00    +0.241 C 
ATOM     22  O   ARG A   3     -19.428 -39.228 -10.510  0.00  0.00    -0.273 OA
ATOM     23  N   LEU A   4     -18.000 -38.245 -11.951  0.00  0.00    -0.298 N 
ATOM     24  H   LEU A   4     -17.061 -38.317 -12.392  0.00  0.00    +0.150 HD
BRANCH  23  25
ATOM     25  CA  LEU A   4     -18.780 -37.028 -12.181  0.00  0.00    +0.137 C 
BRANCH  25  26
ATOM     26  C   LEU A   4     -19.788 -37.296 -13.277  0.00  0.00    +0.227 C 
ATOM     27  O   LEU A   4     -19.396 -37.526 -14.408  0.00  0.00    -0.286 OA
ENDBRANCH  25  26
BRANCH  25  28
ATOM     28  CB  LEU A   4     -17.845 -35.873 -12.549  0.00  0.00    +0.028 C 
BRANCH  28  29
ATOM     29  CG  LEU A   4     -18.462 -34.488 -12.851  0.00  0.00    +0.002 C 
ATOM     30  CD2 LEU A   4     -19.099 -33.886 -11.575  0.00  0.00    +0.000 C 
ATOM     31  CD1 LEU A   4     -17.448 -33.501 -13.500  0.00  0.00    +0.000 C 
ENDBRANCH  28  29
ENDBRANCH  25  28
ENDBRANCH  23  25
ENDBRANCH   1  21
BRANCH   1  32
ATOM     32  CB  ARG A   3     -18.012 -41.448 -12.325  0.00  0.00    +0.033 C 
BRANCH  32  33
ATOM     33  CG  ARG A   3     -17.049 -42.630 -12.506  0.00  0.00    +0.045 C 
BRANCH  33  34
ATOM     34  CD  ARG A   3     -17.754 -43.718 -13.286  0.00  0.00    +0.174 C 
BRANCH  34  35
ATOM     35  NE  ARG A   3     -17.869 -43.330 -14.692  0.00  0.00    -0.265 N 
ATOM     36  HE  ARG A   3     -17.440 -42.427 -14.979  0.00  0.00    +0.259 HD
ATOM     37  CZ  ARG A   3     -18.488 -44.053 -15.640  0.00  0.00    +0.342 C 
ATOM     38  NH2 ARG A   3     -19.067 -45.218 -15.326  0.00  0.00    -0.292 N 
ATOM     39 HH21 ARG A   3     -19.038 -45.566 -14.346  0.00  0.00    +0.255 HD
ATOM     40 HH22 ARG A   3     -19.546 -45.776 -16.062  0.00  0.00    +0.255 HD
ATOM     41  NH1 ARG A   3     -18.521 -43.627 -16.916  0.00  0.00    -0.292 N 
ATOM     42 HH11 ARG A   3     -18.064 -42.730 -17.177  0.00  0.00    +0.255 HD
ATOM     43 HH12 ARG A   3     -19.003 -44.195 -17.642  0.00  0.00    +0.255 HD
ENDBRANCH  34  35
ENDBRANCH  33  34
ENDBRANCH  32  33
ENDBRANCH   1  32
TORSDOF 17
REMARK  Name = ../refined-set-2016/1xws/1xws_pocket.pdb
REMARK  202 active torsions:
REMARK  status: ('A' for Active; 'I' for Inactive)
REMARK    1  A    between atoms: _1  and  _3
REMARK    2  A    between atoms: _3  and  _4
REMARK    3  A    between atoms: _3  and  _6
REMARK    4  A    between atoms: _6  and  _7
REMARK    5  A    between atoms: _10  and  _12
REMARK    6  A    between atoms: _12  and  _13
REMARK    7  A    between atoms: _12  and  _15
REMARK    8  A    between atoms: _15  and  _16
REMARK    9  A    between atoms: _19  and  _21
REMARK   10  A    between atoms: _21  and  _22
REMARK   11  A    between atoms: _24  and  _26
REMARK   12  A    between atoms: _26  and  _27
REMARK   13  A    between atoms: _26  and  _29
REMARK   14  A    between atoms: _29  and  _30
REMARK   15  A    between atoms: _32  and  _34
REMARK   16  A    between atoms: _34  and  _35
REMARK   17  A    between atoms: _37  and  _39
REMARK   18  A    between atoms: _39  and  _40
REMARK   19  A    between atoms: _42  and  _44
REMARK   20  A    between atoms: _44  and  _45
REMARK   21  A    between atoms: _44  and  _47
REMARK   22  A    between atoms: _47  and  _48
REMARK   23  A    between atoms: _54  and  _56
REMARK   24  A    between atoms: _56  and  _57
REMARK   25  A    between atoms: _59  and  _61
REMARK   26  A    between atoms: _61  and  _62
REMARK   27  A    between atoms: _61  and  _64
REMARK   28  A    between atoms: _64  and  _65
REMARK   29  A    between atoms: _67  and  _69
REMARK   30  A    between atoms: _69  and  _70
REMARK   31  A    between atoms: _69  and  _72
REMARK   32  A    between atoms: _75  and  _77
REMARK   33  A    between atoms: _77  and  _78
REMARK   34  A    between atoms: _77  and  _80
REMARK   35  A    between atoms: _80  and  _81
REMARK   36  A    between atoms: _86  and  _87
REMARK   37  A    between atoms: _89  and  _91
REMARK   38  A    between atoms: _91  and  _92
REMARK   39  A    between atoms: _91  and  _94
REMARK   40  A    between atoms: _94  and  _95
REMARK   41  A    between atoms: _97  and  _99
REMARK   42  A    between atoms: _99  and  _100
REMARK   43  A    between atoms: _103  and  _104
REMARK   44  A    between atoms: _109  and  _111
REMARK   45  A    between atoms: _111  and  _112
REMARK   46  A    between atoms: _111  and  _114
REMARK   47  A    between atoms: _117  and  _119
REMARK   48  A    between atoms: _119  and  _120
REMARK   49  A    between atoms: _123  and  _125
REMARK   50  A    between atoms: _125  and  _126
REMARK   51  A    between atoms: _125  and  _128
REMARK   52  A    between atoms: _128  and  _129
REMARK   53  A    between atoms: _132  and  _134
REMARK   54  A    between atoms: _134  and  _135
REMARK   55  A    between atoms: _134  and  _137
REMARK   56  A    between atoms: _137  and  _138
REMARK   57  A    between atoms: _138  and  _139
REMARK   58  A    between atoms: _139  and  _140
REMARK   59  A    between atoms: _140  and  _141
REMARK   60  A    between atoms: _145  and  _147
REMARK   61  A    between atoms: _147  and  _148
REMARK   62  A    between atoms: _147  and  _150
REMARK   63  A    between atoms: _150  and  _151
REMARK   64  A    between atoms: _156  and  _158
REMARK   65  A    between atoms: _158  and  _159
REMARK   66  A    between atoms: _158  and  _161
REMARK   67  A    between atoms: _164  and  _166
REMARK   68  A    between atoms: _166  and  _167
REMARK   69  A    between atoms: _166  and  _169
REMARK   70  A    between atoms: _169  and  _170
REMARK   71  A    between atoms: _170  and  _171
REMARK   72  A    between atoms: _174  and  _176
REMARK   73  A    between atoms: _176  and  _177
REMARK   74  A    between atoms: _176  and  _179
REMARK   75  A    between atoms: _179  and  _180
REMARK   76  A    between atoms: _183  and  _185
REMARK   77  A    between atoms: _185  and  _186
REMARK   78  A    between atoms: _185  and  _188
REMARK   79  A    between atoms: _191  and  _193
REMARK   80  A    between atoms: _193  and  _194
REMARK   81  A    between atoms: _193  and  _196
REMARK   82  A    between atoms: _196  and  _197
REMARK   83  A    between atoms: _200  and  _202
REMARK   84  A    between atoms: _202  and  _203
REMARK   85  A    between atoms: _202  and  _205
REMARK   86  A    between atoms: _205  and  _206
REMARK   87  A    between atoms: _206  and  _207
REMARK   88  A    between atoms: _207  and  _208
REMARK   89  A    between atoms: _217  and  _219
REMARK   90  A    between atoms: _219  and  _220
REMARK   91  A    between atoms: _219  and  _222
REMARK   92  A    between atoms: _222  and  _223
REMARK   93  A    between atoms: _226  and  _228
REMARK   94  A    between atoms: _228  and  _229
REMARK   95  A    between atoms: _228  and  _231
REMARK   96  A    between atoms: _231  and  _232
REMARK   97  A    between atoms: _235  and  _237
REMARK   98  A    between atoms: _237  and  _238
REMARK   99  A    between atoms: _237  and  _240
REMARK  100  A    between atoms: _240  and  _241
REMARK  101  A    between atoms: _244  and  _246
REMARK  102  A    between atoms: _246  and  _247
REMARK  103  A    between atoms: _246  and  _249
REMARK  104  A    between atoms: _249  and  _250
REMARK  105  A    between atoms: _253  and  _255
REMARK  106  A    between atoms: _255  and  _256
REMARK  107  A    between atoms: _255  and  _258
REMARK  108  A    between atoms: _258  and  _259
REMARK  109  A    between atoms: _259  and  _260
REMARK  110  A    between atoms: _263  and  _265
REMARK  111  A    between atoms: _265  and  _266
REMARK  112  A    between atoms: _265  and  _268
REMARK  113  A    between atoms: _268  and  _269
REMARK  114  A    between atoms: _269  and  _270
REMARK  115  A    between atoms: _270  and  _271
REMARK  116  A    between atoms: _281  and  _282
REMARK  117  A    between atoms: _287  and  _289
REMARK  118  A    between atoms: _289  and  _290
REMARK  119  A    between atoms: _289  and  _292
REMARK  120  A    between atoms: _292  and  _293
REMARK  121  A    between atoms: _293  and  _294
REMARK  122  A    between atoms: _297  and  _299
REMARK  123  A    between atoms: _299  and  _300
REMARK  124  A    between atoms: _299  and  _302
REMARK  125  A    between atoms: _305  and  _307
REMARK  126  A    between atoms: _307  and  _308
REMARK  127  A    between atoms: _307  and  _310
REMARK  128  A    between atoms: _310  and  _311
REMARK  129  A    between atoms: _311  and  _312
REMARK  130  A    between atoms: _317  and  _319
REMARK  131  A    between atoms: _319  and  _320
REMARK  132  A    between atoms: _319  and  _322
REMARK  133  A    between atoms: _322  and  _323
REMARK  134  A    between atoms: _326  and  _328
REMARK  135  A    between atoms: _328  and  _329
REMARK  136  A    between atoms: _328  and  _331
REMARK  137  A    between atoms: _331  and  _332
REMARK  138  A    between atoms: _338  and  _340
REMARK  139  A    between atoms: _340  and  _341
REMARK  140  A    between atoms: _340  and  _343
REMARK  141  A    between atoms: _343  and  _344
REMARK  142  A    between atoms: _347  and  _349
REMARK  143  A    between atoms: _349  and  _350
REMARK  144  A    between atoms: _349  and  _352
REMARK  145  A    between atoms: _352  and  _353
REMARK  146  A    between atoms: _353  and  _354
REMARK  147  A    between atoms: _354  and  _355
REMARK  148  A    between atoms: _355  and  _356
REMARK  149  A    between atoms: _360  and  _362
REMARK  150  A    between atoms: _362  and  _363
REMARK  151  A    between atoms: _362  and  _365
REMARK  152  A    between atoms: _365  and  _366
REMARK  153  A    between atoms: _369  and  _371
REMARK  154  A    between atoms: _371  and  _372
REMARK  155  A    between atoms: _371  and  _374
REMARK  156  A    between atoms: _374  and  _375
REMARK  157  A    between atoms: _375  and  _376
REMARK  158  A    between atoms: _379  and  _381
REMARK  159  A    between atoms: _381  and  _382
REMARK  160  A    between atoms: _381  and  _384
REMARK  161  A    between atoms: _384  and  _385
REMARK  162  A    between atoms: _390  and  _392
REMARK  163  A    between atoms: _392  and  _393
REMARK  164  A    between atoms: _392  and  _395
REMARK  165  A    between atoms: _395  and  _396
REMARK  166  A    between atoms: _399  and  _401
REMARK  167  A    between atoms: _401  and  _402
REMARK  168  A    between atoms: _401  and  _404
REMARK  169  A    between atoms: _404  and  _405
REMARK  170  A    between atoms: _408  and  _410
REMARK  171  A    between atoms: _410  and  _411
REMARK  172  A    between atoms: _410  and  _413
REMARK  173  A    between atoms: _413  and  _414
REMARK  174  A    between atoms: _417  and  _419
REMARK  175  A    between atoms: _419  and  _420
REMARK  176  A    between atoms: _419  and  _422
REMARK  177  A    between atoms: _422  and  _423
REMARK  178  A    between atoms: _423  and  _424
REMARK  179  A    between atoms: _424  and  _425
REMARK  180  A    between atoms: _425  and  _426
REMARK  181  A    between atoms: _430  and  _432
REMARK  182  A    between atoms: _432  and  _433
REMARK  183  A    between atoms: _432  and  _435
REMARK  184  A    between atoms: _435  and  _436
REMARK  185  A    between atoms: _439  and  _441
REMARK  186  A    between atoms: _441  and  _442
REMARK  187  A    between atoms: _441  and  _444
REMARK  188  A    between atoms: _444  and  _445
REMARK  189  A    between atoms: _448  and  _450
REMARK  190  A    between atoms: _450  and  _451
REMARK  191  A    between atoms: _450  and  _453
REMARK  192  A    between atoms: _453  and  _454
REMARK  193  A    between atoms: _457  and  _459
REMARK  194  A    between atoms: _459  and  _460
REMARK  195  A    between atoms: _459  and  _462
REMARK  196  A    between atoms: _462  and  _463
REMARK  197  A    between atoms: _469  and  _471
REMARK  198  A    between atoms: _471  and  _472
REMARK  199  A    between atoms: _474  and  _476
REMARK  200  A    between atoms: _476  and  _477
REMARK  201  A    between atoms: _476  and  _479
REMARK  202  A    between atoms: _479  and  _480
REMARK                            x       y       z     vdW  Elec       q    Type
REMARK                         _______ _______ _______ _____ _____    ______ ____
ROOT
ATOM      1  C   GLU A   4     -22.274 -41.176  -6.447  0.00  0.00    +0.241 C 
ATOM      2  O   GLU A   4     -21.458 -40.565  -5.732  0.00  0.00    -0.273 OA
ATOM      3  N   ARG A   5     -23.220 -41.978  -5.967  0.00  0.00    -0.297 N 
ATOM      4  H   ARG A   5     -23.868 -42.442  -6.635  0.00  0.00    +0.150 HD
ENDROOT
BRANCH   3   5
ATOM      5  CA  ARG A   5     -23.385 -42.234  -4.524  0.00  0.00    +0.149 C 
BRANCH   5   6
ATOM      6  C   ARG A   5     -23.679 -43.723  -4.285  0.00  0.00    +0.244 C 
ATOM      7  N   PRO A   6     -22.699 -44.486  -3.748  0.00  0.00    -0.272 N 
ATOM      8  CD  PRO A   6     -21.317 -44.136  -3.366  0.00  0.00    +0.094 C 
ATOM      9  CG  PRO A   6     -20.622 -45.502  -3.258  0.00  0.00    +0.024 C 
ATOM     10  CB  PRO A   6     -21.684 -46.477  -2.896  0.00  0.00    +0.031 C 
ATOM     11  CA  PRO A   6     -23.028 -45.884  -3.411  0.00  0.00    +0.152 C 
ATOM     12  O   ARG A   5     -24.782 -44.169  -4.561  0.00  0.00    -0.273 OA
BRANCH  11  13
ATOM     13  C   PRO A   6     -24.059 -45.900  -2.285  0.00  0.00    +0.241 C 
ATOM     14  O   PRO A   6     -24.093 -44.986  -1.460  0.00  0.00    -0.273 OA
ATOM     15  N   GLU A   7     -24.891 -46.928  -2.258  0.00  0.00    -0.298 N 
ATOM     16  H   GLU A   7     -24.866 -47.631  -3.024  0.00  0.00    +0.150 HD
BRANCH  15  17
ATOM     17  CA  GLU A   7     -25.834 -47.085  -1.176  0.00  0.00    +0.137 C 
BRANCH  17  18
ATOM     18  C   GLU A   7     -26.021 -48.604  -0.983  0.00  0.00    +0.227 C 
ATOM     19  O   GLU A   7     -26.282 -49.328  -1.960  0.00  0.00    -0.286 OA
ENDBRANCH  17  18
BRANCH  17  20
ATOM     20  CB  GLU A   7     -27.147 -46.328  -1.480  0.00  0.00    +0.039 C 
BRANCH  20  21
ATOM     21  CG  GLU A   7     -28.375 -46.601  -0.522  0.00  0.00    +0.116 C 
BRANCH  21  22
ATOM     22  CD  GLU A   7     -28.110 -46.430   1.008  0.00  0.00    +0.365 C 
ATOM     23  OE2 GLU A   7     -28.756 -47.158   1.834  0.00  0.00    -0.246 OA
ATOM     24  OE1 GLU A   7     -27.269 -45.582   1.392  0.00  0.00    -0.246 OA
ENDBRANCH  21  22
ENDBRANCH  20  21
ENDBRANCH  17  20
ENDBRANCH  15  17
ENDBRANCH  11  13
ENDBRANCH   5   6
BRANCH   5  25
ATOM     25  CB  ARG A   5     -24.487 -41.347  -3.919  0.00  0.00    +0.033 C 
BRANCH  25  26
ATOM     26  CG  ARG A   5     -24.731 -41.594  -2.440  0.00  0.00    +0.045 C 
BRANCH  26  27
ATOM     27  CD  ARG A   5     -25.673 -40.595  -1.784  0.00  0.00    +0.174 C 
BRANCH  27  28
ATOM     28  NE  ARG A   5     -27.003 -40.502  -2.400  0.00  0.00    -0.265 N 
ATOM     29  CZ  ARG A   5     -28.047 -41.274  -2.111  0.00  0.00    +0.342 C 
ATOM     30  NH2 ARG A   5     -27.944 -42.258  -1.213  0.00  0.00    -0.292 N 
ATOM     31 HH21 ARG A   5     -27.039 -42.428  -0.730  0.00  0.00    +0.255 HD
ATOM     32 HH22 ARG A   5     -28.769 -42.854  -0.997  0.00  0.00    +0.255 HD
ATOM     33  NH1 ARG A   5     -29.214 -41.051  -2.721  0.00  0.00    -0.292 N 
ATOM     34 HH11 ARG A   5     -30.037 -41.648  -2.503  0.00  0.00    +0.255 HD
ATOM     35 HH12 ARG A   5     -29.300 -40.280  -3.414  0.00  0.00    +0.255 HD
ATOM     36  HE  ARG A   5     -27.140 -39.769  -3.125  0.00  0.00    +0.259 HD
ENDBRANCH  27  28
ENDBRANCH  26  27
ENDBRANCH  25  26
ENDBRANCH   5  25
ENDBRANCH   3   5
BRANCH   1  37
ATOM     37  CA  GLU A   4     -22.205 -41.090  -7.960  0.00  0.00    +0.149 C 
BRANCH  37  40
ATOM     38  C   LEU A   3     -22.201 -38.641  -8.068  0.00  0.00    +0.241 C 
ATOM     39  O   LEU A   3     -23.318 -38.581  -7.539  0.00  0.00    -0.273 OA
ATOM     40  N   GLU A   4     -21.632 -39.798  -8.416  0.00  0.00    -0.297 N 
ATOM     41  H   GLU A   4     -20.780 -39.794  -9.012  0.00  0.00    +0.150 HD
BRANCH  38  42
ATOM     42  CA  LEU A   3     -21.438 -37.348  -8.388  0.00  0.00    +0.149 C 
BRANCH  42  44
ATOM     43  C   ILE A   2     -22.463 -35.549  -9.663  0.00  0.00    +0.241 C 
ATOM     44  N   LEU A   3     -22.373 -36.236  -8.534  0.00  0.00    -0.297 N 
ATOM     45  H   LEU A   3     -22.983 -35.977  -7.732  0.00  0.00    +0.150 HD
ATOM     46  O   ILE A   2     -21.829 -35.838 -10.667  0.00  0.00    -0.273 OA
BRANCH  43  47
ATOM     47  CA  ILE A   2     -23.375 -34.337  -9.647  0.00  0.00    +0.148 C 
BRANCH  47  50
ATOM     48  C   LEU A   1     -22.171 -32.341  -8.929  0.00  0.00    +0.238 C 
ATOM     49  O   LEU A   1     -22.557 -32.463  -7.745  0.00  0.00    -0.274 OA
ATOM     50  N   ILE A   2     -22.521 -33.179  -9.901  0.00  0.00    -0.297 N 
ATOM     51  H   ILE A   2     -22.178 -33.005 -10.867  0.00  0.00    +0.150 HD
BRANCH  48  52
ATOM     52  CA  LEU A   1     -21.264 -31.172  -9.336  0.00  0.00    +0.145 C 
BRANCH  52  53
ATOM     53  N   LEU A   1     -21.812 -29.937  -8.760  0.00  0.00    -0.238 NA
ATOM     54  H   LEU A   1     -21.815 -29.845  -7.724  0.00  0.00    +0.142 HD
ENDBRANCH  52  53
BRANCH  52  55
ATOM     55  CB  LEU A   1     -19.855 -31.439  -8.802  0.00  0.00    +0.026 C 
BRANCH  55  56
ATOM     56  CG  LEU A   1     -18.690 -30.655  -9.448  0.00  0.00    +0.002 C 
ATOM     57  CD2 LEU A   1     -17.286 -31.183  -8.970  0.00  0.00    +0.000 C 
ATOM     58  CD1 LEU A   1     -18.771 -29.139  -9.275  0.00  0.00    +0.000 C 
ENDBRANCH  55  56
ENDBRANCH  52  55
ENDBRANCH  48  52
ENDBRANCH  47  50
BRANCH  47  59
ATOM     59  CB  ILE A   2     -24.544 -34.490 -10.709  0.00  0.00    +0.027 C 
ATOM     60  CG2 ILE A   2     -25.419 -35.724 -10.390  0.00  0.00    +0.002 C 
BRANCH  59  61
ATOM     61  CG1 ILE A   2     -25.351 -33.188 -10.873  0.00  0.00    +0.002 C 
ATOM     62  CD1 ILE A   2     -26.036 -32.664  -9.615  0.00  0.00    +0.000 C 
ENDBRANCH  59  61
ENDBRANCH  47  59
ENDBRANCH  43  47
ENDBRANCH  42  44
BRANCH  42  63
ATOM     63  CB  LEU A   3     -20.387 -37.019  -7.311  0.00  0.00    +0.029 C 
BRANCH  63  64
ATOM     64  CG  LEU A   3     -19.489 -35.807  -7.667  0.00  0.00    +0.002 C 
ATOM     65  CD2 LEU A   3     -19.225 -34.978  -6.413  0.00  0.00    +0.000 C 
ATOM     66  CD1 LEU A   3     -18.200 -36.242  -8.262  0.00  0.00    +0.000 C 
ENDBRANCH  63  64
ENDBRANCH  42  63
ENDBRANCH  38  42
ENDBRANCH  37  40
BRANCH  37  67
ATOM     67  CB  GLU A   4     -21.376 -42.288  -8.426  0.00  0.00    +0.041 C 
BRANCH  67  68
ATOM     68  CG  GLU A   4     -21.300 -42.483  -9.931  0.00  0.00    +0.116 C 
BRANCH  68  69
ATOM     69  CD  GLU A   4     -20.422 -43.717 -10.257  0.00  0.00    +0.365 C 
ATOM     70  OE2 GLU A   4     -19.192 -43.705  -9.982  0.00  0.00    -0.246 OA
ATOM     71  OE1 GLU A   4     -21.003 -44.726 -10.754  0.00  0.00    -0.246 OA
ENDBRANCH  68  69
ENDBRANCH  67  68
ENDBRANCH  37  67
ENDBRANCH   1  37
TORSDOF 29
REMARK  Name = ../refined-set-2016/1xws/1xws_pocket.pdb
REMARK  202 active torsions:
REMARK  status: ('A' for Active; 'I' for Inactive)
REMARK    1  A    between atoms: _1  and  _3
REMARK    2  A    between atoms: _3  and  _4
REMARK    3  A    between atoms: _3  and  _6
REMARK    4  A    between atoms: _6  and  _7
REMARK    5  A    between atoms: _10  and  _12
REMARK    6  A    between atoms: _12  and  _13
REMARK    7  A    between atoms: _12  and  _15
REMARK    8  A    between atoms: _15  and  _16
REMARK    9  A    between atoms: _19  and  _21
REMARK   10  A    between atoms: _21  and  _22
REMARK   11  A    between atoms: _24  and  _26
REMARK   12  A    between atoms: _26  and  _27
REMARK   13  A    between atoms: _26  and  _29
REMARK   14  A    between atoms: _29  and  _30
REMARK   15  A    between atoms: _32  and  _34
REMARK   16  A    between atoms: _34  and  _35
REMARK   17  A    between atoms: _37  and  _39
REMARK   18  A    between atoms: _39  and  _40
REMARK   19  A    between atoms: _42  and  _44
REMARK   20  A    between atoms: _44  and  _45
REMARK   21  A    between atoms: _44  and  _47
REMARK   22  A    between atoms: _47  and  _48
REMARK   23  A    between atoms: _54  and  _56
REMARK   24  A    between atoms: _56  and  _57
REMARK   25  A    between atoms: _59  and  _61
REMARK   26  A    between atoms: _61  and  _62
REMARK   27  A    between atoms: _61  and  _64
REMARK   28  A    between atoms: _64  and  _65
REMARK   29  A    between atoms: _67  and  _69
REMARK   30  A    between atoms: _69  and  _70
REMARK   31  A    between atoms: _69  and  _72
REMARK   32  A    between atoms: _75  and  _77
REMARK   33  A    between atoms: _77  and  _78
REMARK   34  A    between atoms: _77  and  _80
REMARK   35  A    between atoms: _80  and  _81
REMARK   36  A    between atoms: _86  and  _87
REMARK   37  A    between atoms: _89  and  _91
REMARK   38  A    between atoms: _91  and  _92
REMARK   39  A    between atoms: _91  and  _94
REMARK   40  A    between atoms: _94  and  _95
REMARK   41  A    between atoms: _97  and  _99
REMARK   42  A    between atoms: _99  and  _100
REMARK   43  A    between atoms: _103  and  _104
REMARK   44  A    between atoms: _109  and  _111
REMARK   45  A    between atoms: _111  and  _112
REMARK   46  A    between atoms: _111  and  _114
REMARK   47  A    between atoms: _117  and  _119
REMARK   48  A    between atoms: _119  and  _120
REMARK   49  A    between atoms: _123  and  _125
REMARK   50  A    between atoms: _125  and  _126
REMARK   51  A    between atoms: _125  and  _128
REMARK   52  A    between atoms: _128  and  _129
REMARK   53  A    between atoms: _132  and  _134
REMARK   54  A    between atoms: _134  and  _135
REMARK   55  A    between atoms: _134  and  _137
REMARK   56  A    between atoms: _137  and  _138
REMARK   57  A    between atoms: _138  and  _139
REMARK   58  A    between atoms: _139  and  _140
REMARK   59  A    between atoms: _140  and  _141
REMARK   60  A    between atoms: _145  and  _147
REMARK   61  A    between atoms: _147  and  _148
REMARK   62  A    between atoms: _147  and  _150
REMARK   63  A    between atoms: _150  and  _151
REMARK   64  A    between atoms: _156  and  _158
REMARK   65  A    between atoms: _158  and  _159
REMARK   66  A    between atoms: _158  and  _161
REMARK   67  A    between atoms: _164  and  _166
REMARK   68  A    between atoms: _166  and  _167
REMARK   69  A    between atoms: _166  and  _169
REMARK   70  A    between atoms: _169  and  _170
REMARK   71  A    between atoms: _170  and  _171
REMARK   72  A    between atoms: _174  and  _176
REMARK   73  A    between atoms: _176  and  _177
REMARK   74  A    between atoms: _176  and  _179
REMARK   75  A    between atoms: _179  and  _180
REMARK   76  A    between atoms: _183  and  _185
REMARK   77  A    between atoms: _185  and  _186
REMARK   78  A    between atoms: _185  and  _188
REMARK   79  A    between atoms: _191  and  _193
REMARK   80  A    between atoms: _193  and  _194
REMARK   81  A    between atoms: _193  and  _196
REMARK   82  A    between atoms: _196  and  _197
REMARK   83  A    between atoms: _200  and  _202
REMARK   84  A    between atoms: _202  and  _203
REMARK   85  A    between atoms: _202  and  _205
REMARK   86  A    between atoms: _205  and  _206
REMARK   87  A    between atoms: _206  and  _207
REMARK   88  A    between atoms: _207  and  _208
REMARK   89  A    between atoms: _217  and  _219
REMARK   90  A    between atoms: _219  and  _220
REMARK   91  A    between atoms: _219  and  _222
REMARK   92  A    between atoms: _222  and  _223
REMARK   93  A    between atoms: _226  and  _228
REMARK   94  A    between atoms: _228  and  _229
REMARK   95  A    between atoms: _228  and  _231
REMARK   96  A    between atoms: _231  and  _232
REMARK   97  A    between atoms: _235  and  _237
REMARK   98  A    between atoms: _237  and  _238
REMARK   99  A    between atoms: _237  and  _240
REMARK  100  A    between atoms: _240  and  _241
REMARK  101  A    between atoms: _244  and  _246
REMARK  102  A    between atoms: _246  and  _247
REMARK  103  A    between atoms: _246  and  _249
REMARK  104  A    between atoms: _249  and  _250
REMARK  105  A    between atoms: _253  and  _255
REMARK  106  A    between atoms: _255  and  _256
REMARK  107  A    between atoms: _255  and  _258
REMARK  108  A    between atoms: _258  and  _259
REMARK  109  A    between atoms: _259  and  _260
REMARK  110  A    between atoms: _263  and  _265
REMARK  111  A    between atoms: _265  and  _266
REMARK  112  A    between atoms: _265  and  _268
REMARK  113  A    between atoms: _268  and  _269
REMARK  114  A    between atoms: _269  and  _270
REMARK  115  A    between atoms: _270  and  _271
REMARK  116  A    between atoms: _281  and  _282
REMARK  117  A    between atoms: _287  and  _289
REMARK  118  A    between atoms: _289  and  _290
REMARK  119  A    between atoms: _289  and  _292
REMARK  120  A    between atoms: _292  and  _293
REMARK  121  A    between atoms: _293  and  _294
REMARK  122  A    between atoms: _297  and  _299
REMARK  123  A    between atoms: _299  and  _300
REMARK  124  A    between atoms: _299  and  _302
REMARK  125  A    between atoms: _305  and  _307
REMARK  126  A    between atoms: _307  and  _308
REMARK  127  A    between atoms: _307  and  _310
REMARK  128  A    between atoms: _310  and  _311
REMARK  129  A    between atoms: _311  and  _312
REMARK  130  A    between atoms: _317  and  _319
REMARK  131  A    between atoms: _319  and  _320
REMARK  132  A    between atoms: _319  and  _322
REMARK  133  A    between atoms: _322  and  _323
REMARK  134  A    between atoms: _326  and  _328
REMARK  135  A    between atoms: _328  and  _329
REMARK  136  A    between atoms: _328  and  _331
REMARK  137  A    between atoms: _331  and  _332
REMARK  138  A    between atoms: _338  and  _340
REMARK  139  A    between atoms: _340  and  _341
REMARK  140  A    between atoms: _340  and  _343
REMARK  141  A    between atoms: _343  and  _344
REMARK  142  A    between atoms: _347  and  _349
REMARK  143  A    between atoms: _349  and  _350
REMARK  144  A    between atoms: _349  and  _352
REMARK  145  A    between atoms: _352  and  _353
REMARK  146  A    between atoms: _353  and  _354
REMARK  147  A    between atoms: _354  and  _355
REMARK  148  A    between atoms: _355  and  _356
REMARK  149  A    between atoms: _360  and  _362
REMARK  150  A    between atoms: _362  and  _363
REMARK  151  A    between atoms: _362  and  _365
REMARK  152  A    between atoms: _365  and  _366
REMARK  153  A    between atoms: _369  and  _371
REMARK  154  A    between atoms: _371  and  _372
REMARK  155  A    between atoms: _371  and  _374
REMARK  156  A    between atoms: _374  and  _375
REMARK  157  A    between atoms: _375  and  _376
REMARK  158  A    between atoms: _379  and  _381
REMARK  159  A    between atoms: _381  and  _382
REMARK  160  A    between atoms: _381  and  _384
REMARK  161  A    between atoms: _384  and  _385
REMARK  162  A    between atoms: _390  and  _392
REMARK  163  A    between atoms: _392  and  _393
REMARK  164  A    between atoms: _392  and  _395
REMARK  165  A    between atoms: _395  and  _396
REMARK  166  A    between atoms: _399  and  _401
REMARK  167  A    between atoms: _401  and  _402
REMARK  168  A    between atoms: _401  and  _404
REMARK  169  A    between atoms: _404  and  _405
REMARK  170  A    between atoms: _408  and  _410
REMARK  171  A    between atoms: _410  and  _411
REMARK  172  A    between atoms: _410  and  _413
REMARK  173  A    between atoms: _413  and  _414
REMARK  174  A    between atoms: _417  and  _419
REMARK  175  A    between atoms: _419  and  _420
REMARK  176  A    between atoms: _419  and  _422
REMARK  177  A    between atoms: _422  and  _423
REMARK  178  A    between atoms: _423  and  _424
REMARK  179  A    between atoms: _424  and  _425
REMARK  180  A    between atoms: _425  and  _426
REMARK  181  A    between atoms: _430  and  _432
REMARK  182  A    between atoms: _432  and  _433
REMARK  183  A    between atoms: _432  and  _435
REMARK  184  A    between atoms: _435  and  _436
REMARK  185  A    between atoms: _439  and  _441
REMARK  186  A    between atoms: _441  and  _442
REMARK  187  A    between atoms: _441  and  _444
REMARK  188  A    between atoms: _444  and  _445
REMARK  189  A    between atoms: _448  and  _450
REMARK  190  A    between atoms: _450  and  _451
REMARK  191  A    between atoms: _450  and  _453
REMARK  192  A    between atoms: _453  and  _454
REMARK  193  A    between atoms: _457  and  _459
REMARK  194  A    between atoms: _459  and  _460
REMARK  195  A    between atoms: _459  and  _462
REMARK  196  A    between atoms: _462  and  _463
REMARK  197  A    between atoms: _469  and  _471
REMARK  198  A    between atoms: _471  and  _472
REMARK  199  A    between atoms: _474  and  _476
REMARK  200  A    between atoms: _476  and  _477
REMARK  201  A    between atoms: _476  and  _479
REMARK  202  A    between atoms: _479  and  _480
REMARK                            x       y       z     vdW  Elec       q    Type
REMARK                         _______ _______ _______ _____ _____    ______ ____
ROOT
ATOM      1  CA  GLN A   2     -19.401 -45.803   4.648  0.00  0.00    +0.149 C 
ENDROOT
BRANCH   1   4
ATOM      2  C   VAL A   1     -21.406 -46.206   3.299  0.00  0.00    +0.238 C 
ATOM      3  O   VAL A   1     -22.171 -45.840   4.192  0.00  0.00    -0.274 OA
ATOM      4  N   GLN A   2     -20.108 -46.341   3.473  0.00  0.00    -0.297 N 
ATOM      5  H   GLN A   2     -19.559 -46.849   2.751  0.00  0.00    +0.150 HD
BRANCH   2   6
ATOM      6  CA  VAL A   1     -21.942 -46.580   1.915  0.00  0.00    +0.145 C 
BRANCH   6   7
ATOM      7  CB  VAL A   1     -21.864 -45.366   0.945  0.00  0.00    +0.025 C 
ATOM      8  CG2 VAL A   1     -22.599 -44.148   1.544  0.00  0.00    +0.002 C 
ATOM      9  CG1 VAL A   1     -20.416 -45.066   0.514  0.00  0.00    +0.002 C 
ENDBRANCH   6   7
BRANCH   6  10
ATOM     10  N   VAL A   1     -23.318 -47.041   2.014  0.00  0.00    -0.238 NA
ATOM     11  H   VAL A   1     -23.973 -46.548   2.653  0.00  0.00    +0.142 HD
ENDBRANCH   6  10
ENDBRANCH   2   6
ENDBRANCH   1   4
BRANCH   1  12
ATOM     12  C   GLN A   2     -17.999 -45.437   4.223  0.00  0.00    +0.241 C 
ATOM     13  N   ASP A   3     -17.501 -44.287   4.666  0.00  0.00    -0.298 N 
ATOM     14  H   ASP A   3     -18.082 -43.620   5.213  0.00  0.00    +0.150 HD
ATOM     15  O   GLN A   2     -17.350 -46.184   3.465  0.00  0.00    -0.273 OA
BRANCH  13  16
ATOM     16  CA  ASP A   3     -16.114 -44.002   4.354  0.00  0.00    +0.148 C 
BRANCH  16  17
ATOM     17  C   ASP A   3     -15.155 -44.895   5.185  0.00  0.00    +0.227 C 
ATOM     18  O   ASP A   3     -15.516 -45.442   6.251  0.00  0.00    -0.286 OA
ENDBRANCH  16  17
BRANCH  16  19
ATOM     19  CB  ASP A   3     -15.749 -42.497   4.379  0.00  0.00    +0.142 C 
BRANCH  19  20
ATOM     20  CG  ASP A   3     -15.634 -41.927   5.783  0.00  0.00    +0.367 C 
ATOM     21  OD2 ASP A   3     -15.100 -42.592   6.695  0.00  0.00    -0.246 OA
ATOM     22  OD1 ASP A   3     -16.068 -40.788   5.993  0.00  0.00    -0.246 OA
ENDBRANCH  19  20
ENDBRANCH  16  19
ENDBRANCH  13  16
ENDBRANCH   1  12
BRANCH   1  23
ATOM     23  CB  GLN A   2     -19.326 -46.846   5.774  0.00  0.00    +0.039 C 
BRANCH  23  24
ATOM     24  CG  GLN A   2     -18.856 -46.240   7.052  0.00  0.00    +0.087 C 
BRANCH  24  25
ATOM     25  CD  GLN A   2     -18.868 -47.231   8.216  0.00  0.00    +0.219 C 
ATOM     26  NE2 GLN A   2     -19.266 -46.762   9.393  0.00  0.00    -0.329 N 
ATOM     27 HE21 GLN A   2     -19.260 -47.381  10.229  0.00  0.00    +0.145 HD
ATOM     28 HE22 GLN A   2     -19.584 -45.776   9.479  0.00  0.00    +0.145 HD
ATOM     29  OE1 GLN A   2     -18.485 -48.384   8.062  0.00  0.00    -0.275 OA
ENDBRANCH  24  25
ENDBRANCH  23  24
ENDBRANCH   1  23
TORSDOF 12
REMARK  Name = ../refined-set-2016/1xws/1xws_pocket.pdb
REMARK  202 active torsions:
REMARK  status: ('A' for Active; 'I' for Inactive)
REMARK    1  A    between atoms: _1  and  _3
REMARK    2  A    between atoms: _3  and  _4
REMARK    3  A    between atoms: _3  and  _6
REMARK    4  A    between atoms: _6  and  _7
REMARK    5  A    between atoms: _10  and  _12
REMARK    6  A    between atoms: _12  and  _13
REMARK    7  A    between atoms: _12  and  _15
REMARK    8  A    between atoms: _15  and  _16
REMARK    9  A    between atoms: _19  and  _21
REMARK   10  A    between atoms: _21  and  _22
REMARK   11  A    between atoms: _24  and  _26
REMARK   12  A    between atoms: _26  and  _27
REMARK   13  A    between atoms: _26  and  _29
REMARK   14  A    between atoms: _29  and  _30
REMARK   15  A    between atoms: _32  and  _34
REMARK   16  A    between atoms: _34  and  _35
REMARK   17  A    between atoms: _37  and  _39
REMARK   18  A    between atoms: _39  and  _40
REMARK   19  A    between atoms: _42  and  _44
REMARK   20  A    between atoms: _44  and  _45
REMARK   21  A    between atoms: _44  and  _47
REMARK   22  A    between atoms: _47  and  _48
REMARK   23  A    between atoms: _54  and  _56
REMARK   24  A    between atoms: _56  and  _57
REMARK   25  A    between atoms: _59  and  _61
REMARK   26  A    between atoms: _61  and  _62
REMARK   27  A    between atoms: _61  and  _64
REMARK   28  A    between atoms: _64  and  _65
REMARK   29  A    between atoms: _67  and  _69
REMARK   30  A    between atoms: _69  and  _70
REMARK   31  A    between atoms: _69  and  _72
REMARK   32  A    between atoms: _75  and  _77
REMARK   33  A    between atoms: _77  and  _78
REMARK   34  A    between atoms: _77  and  _80
REMARK   35  A    between atoms: _80  and  _81
REMARK   36  A    between atoms: _86  and  _87
REMARK   37  A    between atoms: _89  and  _91
REMARK   38  A    between atoms: _91  and  _92
REMARK   39  A    between atoms: _91  and  _94
REMARK   40  A    between atoms: _94  and  _95
REMARK   41  A    between atoms: _97  and  _99
REMARK   42  A    between atoms: _99  and  _100
REMARK   43  A    between atoms: _103  and  _104
REMARK   44  A    between atoms: _109  and  _111
REMARK   45  A    between atoms: _111  and  _112
REMARK   46  A    between atoms: _111  and  _114
REMARK   47  A    between atoms: _117  and  _119
REMARK   48  A    between atoms: _119  and  _120
REMARK   49  A    between atoms: _123  and  _125
REMARK   50  A    between atoms: _125  and  _126
REMARK   51  A    between atoms: _125  and  _128
REMARK   52  A    between atoms: _128  and  _129
REMARK   53  A    between atoms: _132  and  _134
REMARK   54  A    between atoms: _134  and  _135
REMARK   55  A    between atoms: _134  and  _137
REMARK   56  A    between atoms: _137  and  _138
REMARK   57  A    between atoms: _138  and  _139
REMARK   58  A    between atoms: _139  and  _140
REMARK   59  A    between atoms: _140  and  _141
REMARK   60  A    between atoms: _145  and  _147
REMARK   61  A    between atoms: _147  and  _148
REMARK   62  A    between atoms: _147  and  _150
REMARK   63  A    between atoms: _150  and  _151
REMARK   64  A    between atoms: _156  and  _158
REMARK   65  A    between atoms: _158  and  _159
REMARK   66  A    between atoms: _158  and  _161
REMARK   67  A    between atoms: _164  and  _166
REMARK   68  A    between atoms: _166  and  _167
REMARK   69  A    between atoms: _166  and  _169
REMARK   70  A    between atoms: _169  and  _170
REMARK   71  A    between atoms: _170  and  _171
REMARK   72  A    between atoms: _174  and  _176
REMARK   73  A    between atoms: _176  and  _177
REMARK   74  A    between atoms: _176  and  _179
REMARK   75  A    between atoms: _179  and  _180
REMARK   76  A    between atoms: _183  and  _185
REMARK   77  A    between atoms: _185  and  _186
REMARK   78  A    between atoms: _185  and  _188
REMARK   79  A    between atoms: _191  and  _193
REMARK   80  A    between atoms: _193  and  _194
REMARK   81  A    between atoms: _193  and  _196
REMARK   82  A    between atoms: _196  and  _197
REMARK   83  A    between atoms: _200  and  _202
REMARK   84  A    between atoms: _202  and  _203
REMARK   85  A    between atoms: _202  and  _205
REMARK   86  A    between atoms: _205  and  _206
REMARK   87  A    between atoms: _206  and  _207
REMARK   88  A    between atoms: _207  and  _208
REMARK   89  A    between atoms: _217  and  _219
REMARK   90  A    between atoms: _219  and  _220
REMARK   91  A    between atoms: _219  and  _222
REMARK   92  A    between atoms: _222  and  _223
REMARK   93  A    between atoms: _226  and  _228
REMARK   94  A    between atoms: _228  and  _229
REMARK   95  A    between atoms: _228  and  _231
REMARK   96  A    between atoms: _231  and  _232
REMARK   97  A    between atoms: _235  and  _237
REMARK   98  A    between atoms: _237  and  _238
REMARK   99  A    between atoms: _237  and  _240
REMARK  100  A    between atoms: _240  and  _241
REMARK  101  A    between atoms: _244  and  _246
REMARK  102  A    between atoms: _246  and  _247
REMARK  103  A    between atoms: _246  and  _249
REMARK  104  A    between atoms: _249  and  _250
REMARK  105  A    between atoms: _253  and  _255
REMARK  106  A    between atoms: _255  and  _256
REMARK  107  A    between atoms: _255  and  _258
REMARK  108  A    between atoms: _258  and  _259
REMARK  109  A    between atoms: _259  and  _260
REMARK  110  A    between atoms: _263  and  _265
REMARK  111  A    between atoms: _265  and  _266
REMARK  112  A    between atoms: _265  and  _268
REMARK  113  A    between atoms: _268  and  _269
REMARK  114  A    between atoms: _269  and  _270
REMARK  115  A    between atoms: _270  and  _271
REMARK  116  A    between atoms: _281  and  _282
REMARK  117  A    between atoms: _287  and  _289
REMARK  118  A    between atoms: _289  and  _290
REMARK  119  A    between atoms: _289  and  _292
REMARK  120  A    between atoms: _292  and  _293
REMARK  121  A    between atoms: _293  and  _294
REMARK  122  A    between atoms: _297  and  _299
REMARK  123  A    between atoms: _299  and  _300
REMARK  124  A    between atoms: _299  and  _302
REMARK  125  A    between atoms: _305  and  _307
REMARK  126  A    between atoms: _307  and  _308
REMARK  127  A    between atoms: _307  and  _310
REMARK  128  A    between atoms: _310  and  _311
REMARK  129  A    between atoms: _311  and  _312
REMARK  130  A    between atoms: _317  and  _319
REMARK  131  A    between atoms: _319  and  _320
REMARK  132  A    between atoms: _319  and  _322
REMARK  133  A    between atoms: _322  and  _323
REMARK  134  A    between atoms: _326  and  _328
REMARK  135  A    between atoms: _328  and  _329
REMARK  136  A    between atoms: _328  and  _331
REMARK  137  A    between atoms: _331  and  _332
REMARK  138  A    between atoms: _338  and  _340
REMARK  139  A    between atoms: _340  and  _341
REMARK  140  A    between atoms: _340  and  _343
REMARK  141  A    between atoms: _343  and  _344
REMARK  142  A    between atoms: _347  and  _349
REMARK  143  A    between atoms: _349  and  _350
REMARK  144  A    between atoms: _349  and  _352
REMARK  145  A    between atoms: _352  and  _353
REMARK  146  A    between atoms: _353  and  _354
REMARK  147  A    between atoms: _354  and  _355
REMARK  148  A    between atoms: _355  and  _356
REMARK  149  A    between atoms: _360  and  _362
REMARK  150  A    between atoms: _362  and  _363
REMARK  151  A    between atoms: _362  and  _365
REMARK  152  A    between atoms: _365  and  _366
REMARK  153  A    between atoms: _369  and  _371
REMARK  154  A    between atoms: _371  and  _372
REMARK  155  A    between atoms: _371  and  _374
REMARK  156  A    between atoms: _374  and  _375
REMARK  157  A    between atoms: _375  and  _376
REMARK  158  A    between atoms: _379  and  _381
REMARK  159  A    between atoms: _381  and  _382
REMARK  160  A    between atoms: _381  and  _384
REMARK  161  A    between atoms: _384  and  _385
REMARK  162  A    between atoms: _390  and  _392
REMARK  163  A    between atoms: _392  and  _393
REMARK  164  A    between atoms: _392  and  _395
REMARK  165  A    between atoms: _395  and  _396
REMARK  166  A    between atoms: _399  and  _401
REMARK  167  A    between atoms: _401  and  _402
REMARK  168  A    between atoms: _401  and  _404
REMARK  169  A    between atoms: _404  and  _405
REMARK  170  A    between atoms: _408  and  _410
REMARK  171  A    between atoms: _410  and  _411
REMARK  172  A    between atoms: _410  and  _413
REMARK  173  A    between atoms: _413  and  _414
REMARK  174  A    between atoms: _417  and  _419
REMARK  175  A    between atoms: _419  and  _420
REMARK  176  A    between atoms: _419  and  _422
REMARK  177  A    between atoms: _422  and  _423
REMARK  178  A    between atoms: _423  and  _424
REMARK  179  A    between atoms: _424  and  _425
REMARK  180  A    between atoms: _425  and  _426
REMARK  181  A    between atoms: _430  and  _432
REMARK  182  A    between atoms: _432  and  _433
REMARK  183  A    between atoms: _432  and  _435
REMARK  184  A    between atoms: _435  and  _436
REMARK  185  A    between atoms: _439  and  _441
REMARK  186  A    between atoms: _441  and  _442
REMARK  187  A    between atoms: _441  and  _444
REMARK  188  A    between atoms: _444  and  _445
REMARK  189  A    between atoms: _448  and  _450
REMARK  190  A    between atoms: _450  and  _451
REMARK  191  A    between atoms: _450  and  _453
REMARK  192  A    between atoms: _453  and  _454
REMARK  193  A    between atoms: _457  and  _459
REMARK  194  A    between atoms: _459  and  _460
REMARK  195  A    between atoms: _459  and  _462
REMARK  196  A    between atoms: _462  and  _463
REMARK  197  A    between atoms: _469  and  _471
REMARK  198  A    between atoms: _471  and  _472
REMARK  199  A    between atoms: _474  and  _476
REMARK  200  A    between atoms: _476  and  _477
REMARK  201  A    between atoms: _476  and  _479
REMARK  202  A    between atoms: _479  and  _480
REMARK                            x       y       z     vdW  Elec       q    Type
REMARK                         _______ _______ _______ _____ _____    ______ ____
ROOT
ATOM      1  C   PHE A   1     -13.212 -44.086   9.306  0.00  0.00    +0.239 C 
ATOM      2  O   PHE A   1     -12.836 -44.552  10.398  0.00  0.00    -0.274 OA
ATOM      3  N   ASP A   2     -14.496 -44.023   8.957  0.00  0.00    -0.298 N 
ATOM      4  H   ASP A   2     -14.743 -43.703   7.999  0.00  0.00    +0.150 HD
ENDROOT
BRANCH   1   5
ATOM      5  CA  PHE A   1     -12.205 -43.566   8.264  0.00  0.00    +0.149 C 
BRANCH   5   6
ATOM      6  N   PHE A   1     -12.527 -44.090   6.929  0.00  0.00    -0.238 NA
ATOM      7  H   PHE A   1     -12.728 -43.433   6.148  0.00  0.00    +0.142 HD
ENDBRANCH   5   6
BRANCH   5   8
ATOM      8  CB  PHE A   1     -12.173 -42.010   8.217  0.00  0.00    +0.053 C 
BRANCH   8   9
ATOM      9  CG  PHE A   1     -12.008 -41.369   9.556  0.00  0.00    -0.020 A 
ATOM     10  CD2 PHE A   1     -13.118 -41.080  10.364  0.00  0.00    -0.004 A 
ATOM     11  CE2 PHE A   1     -12.972 -40.507  11.642  0.00  0.00    -0.000 A 
ATOM     12  CZ  PHE A   1     -11.680 -40.236  12.132  0.00  0.00    -0.000 A 
ATOM     13  CE1 PHE A   1     -10.580 -40.503  11.359  0.00  0.00    -0.000 A 
ATOM     14  CD1 PHE A   1     -10.734 -41.084  10.034  0.00  0.00    -0.004 A 
ENDBRANCH   8   9
ENDBRANCH   5   8
ENDBRANCH   1   5
BRANCH   3  15
ATOM     15  CA  ASP A   2     -15.561 -44.387   9.872  0.00  0.00    +0.148 C 
BRANCH  15  16
ATOM     16  C   ASP A   2     -15.552 -45.873  10.027  0.00  0.00    +0.227 C 
ATOM     17  O   ASP A   2     -15.831 -46.382  11.076  0.00  0.00    -0.286 OA
ENDBRANCH  15  16
BRANCH  15  18
ATOM     18  CB  ASP A   2     -16.888 -43.980   9.285  0.00  0.00    +0.142 C 
BRANCH  18  19
ATOM     19  CG  ASP A   2     -17.213 -42.504   9.498  0.00  0.00    +0.367 C 
ATOM     20  OD2 ASP A   2     -16.496 -41.788  10.238  0.00  0.00    -0.246 OA
ATOM     21  OD1 ASP A   2     -18.263 -42.085   8.949  0.00  0.00    -0.246 OA
ENDBRANCH  18  19
ENDBRANCH  15  18
ENDBRANCH   3  15
TORSDOF 8
REMARK  Name = ../refined-set-2016/1xws/1xws_pocket.pdb
REMARK  202 active torsions:
REMARK  status: ('A' for Active; 'I' for Inactive)
REMARK    1  A    between atoms: _1  and  _3
REMARK    2  A    between atoms: _3  and  _4
REMARK    3  A    between atoms: _3  and  _6
REMARK    4  A    between atoms: _6  and  _7
REMARK    5  A    between atoms: _10  and  _12
REMARK    6  A    between atoms: _12  and  _13
REMARK    7  A    between atoms: _12  and  _15
REMARK    8  A    between atoms: _15  and  _16
REMARK    9  A    between atoms: _19  and  _21
REMARK   10  A    between atoms: _21  and  _22
REMARK   11  A    between atoms: _24  and  _26
REMARK   12  A    between atoms: _26  and  _27
REMARK   13  A    between atoms: _26  and  _29
REMARK   14  A    between atoms: _29  and  _30
REMARK   15  A    between atoms: _32  and  _34
REMARK   16  A    between atoms: _34  and  _35
REMARK   17  A    between atoms: _37  and  _39
REMARK   18  A    between atoms: _39  and  _40
REMARK   19  A    between atoms: _42  and  _44
REMARK   20  A    between atoms: _44  and  _45
REMARK   21  A    between atoms: _44  and  _47
REMARK   22  A    between atoms: _47  and  _48
REMARK   23  A    between atoms: _54  and  _56
REMARK   24  A    between atoms: _56  and  _57
REMARK   25  A    between atoms: _59  and  _61
REMARK   26  A    between atoms: _61  and  _62
REMARK   27  A    between atoms: _61  and  _64
REMARK   28  A    between atoms: _64  and  _65
REMARK   29  A    between atoms: _67  and  _69
REMARK   30  A    between atoms: _69  and  _70
REMARK   31  A    between atoms: _69  and  _72
REMARK   32  A    between atoms: _75  and  _77
REMARK   33  A    between atoms: _77  and  _78
REMARK   34  A    between atoms: _77  and  _80
REMARK   35  A    between atoms: _80  and  _81
REMARK   36  A    between atoms: _86  and  _87
REMARK   37  A    between atoms: _89  and  _91
REMARK   38  A    between atoms: _91  and  _92
REMARK   39  A    between atoms: _91  and  _94
REMARK   40  A    between atoms: _94  and  _95
REMARK   41  A    between atoms: _97  and  _99
REMARK   42  A    between atoms: _99  and  _100
REMARK   43  A    between atoms: _103  and  _104
REMARK   44  A    between atoms: _109  and  _111
REMARK   45  A    between atoms: _111  and  _112
REMARK   46  A    between atoms: _111  and  _114
REMARK   47  A    between atoms: _117  and  _119
REMARK   48  A    between atoms: _119  and  _120
REMARK   49  A    between atoms: _123  and  _125
REMARK   50  A    between atoms: _125  and  _126
REMARK   51  A    between atoms: _125  and  _128
REMARK   52  A    between atoms: _128  and  _129
REMARK   53  A    between atoms: _132  and  _134
REMARK   54  A    between atoms: _134  and  _135
REMARK   55  A    between atoms: _134  and  _137
REMARK   56  A    between atoms: _137  and  _138
REMARK   57  A    between atoms: _138  and  _139
REMARK   58  A    between atoms: _139  and  _140
REMARK   59  A    between atoms: _140  and  _141
REMARK   60  A    between atoms: _145  and  _147
REMARK   61  A    between atoms: _147  and  _148
REMARK   62  A    between atoms: _147  and  _150
REMARK   63  A    between atoms: _150  and  _151
REMARK   64  A    between atoms: _156  and  _158
REMARK   65  A    between atoms: _158  and  _159
REMARK   66  A    between atoms: _158  and  _161
REMARK   67  A    between atoms: _164  and  _166
REMARK   68  A    between atoms: _166  and  _167
REMARK   69  A    between atoms: _166  and  _169
REMARK   70  A    between atoms: _169  and  _170
REMARK   71  A    between atoms: _170  and  _171
REMARK   72  A    between atoms: _174  and  _176
REMARK   73  A    between atoms: _176  and  _177
REMARK   74  A    between atoms: _176  and  _179
REMARK   75  A    between atoms: _179  and  _180
REMARK   76  A    between atoms: _183  and  _185
REMARK   77  A    between atoms: _185  and  _186
REMARK   78  A    between atoms: _185  and  _188
REMARK   79  A    between atoms: _191  and  _193
REMARK   80  A    between atoms: _193  and  _194
REMARK   81  A    between atoms: _193  and  _196
REMARK   82  A    between atoms: _196  and  _197
REMARK   83  A    between atoms: _200  and  _202
REMARK   84  A    between atoms: _202  and  _203
REMARK   85  A    between atoms: _202  and  _205
REMARK   86  A    between atoms: _205  and  _206
REMARK   87  A    between atoms: _206  and  _207
REMARK   88  A    between atoms: _207  and  _208
REMARK   89  A    between atoms: _217  and  _219
REMARK   90  A    between atoms: _219  and  _220
REMARK   91  A    between atoms: _219  and  _222
REMARK   92  A    between atoms: _222  and  _223
REMARK   93  A    between atoms: _226  and  _228
REMARK   94  A    between atoms: _228  and  _229
REMARK   95  A    between atoms: _228  and  _231
REMARK   96  A    between atoms: _231  and  _232
REMARK   97  A    between atoms: _235  and  _237
REMARK   98  A    between atoms: _237  and  _238
REMARK   99  A    between atoms: _237  and  _240
REMARK  100  A    between atoms: _240  and  _241
REMARK  101  A    between atoms: _244  and  _246
REMARK  102  A    between atoms: _246  and  _247
REMARK  103  A    between atoms: _246  and  _249
REMARK  104  A    between atoms: _249  and  _250
REMARK  105  A    between atoms: _253  and  _255
REMARK  106  A    between atoms: _255  and  _256
REMARK  107  A    between atoms: _255  and  _258
REMARK  108  A    between atoms: _258  and  _259
REMARK  109  A    between atoms: _259  and  _260
REMARK  110  A    between atoms: _263  and  _265
REMARK  111  A    between atoms: _265  and  _266
REMARK  112  A    between atoms: _265  and  _268
REMARK  113  A    between atoms: _268  and  _269
REMARK  114  A    between atoms: _269  and  _270
REMARK  115  A    between atoms: _270  and  _271
REMARK  116  A    between atoms: _281  and  _282
REMARK  117  A    between atoms: _287  and  _289
REMARK  118  A    between atoms: _289  and  _290
REMARK  119  A    between atoms: _289  and  _292
REMARK  120  A    between atoms: _292  and  _293
REMARK  121  A    between atoms: _293  and  _294
REMARK  122  A    between atoms: _297  and  _299
REMARK  123  A    between atoms: _299  and  _300
REMARK  124  A    between atoms: _299  and  _302
REMARK  125  A    between atoms: _305  and  _307
REMARK  126  A    between atoms: _307  and  _308
REMARK  127  A    between atoms: _307  and  _310
REMARK  128  A    between atoms: _310  and  _311
REMARK  129  A    between atoms: _311  and  _312
REMARK  130  A    between atoms: _317  and  _319
REMARK  131  A    between atoms: _319  and  _320
REMARK  132  A    between atoms: _319  and  _322
REMARK  133  A    between atoms: _322  and  _323
REMARK  134  A    between atoms: _326  and  _328
REMARK  135  A    between atoms: _328  and  _329
REMARK  136  A    between atoms: _328  and  _331
REMARK  137  A    between atoms: _331  and  _332
REMARK  138  A    between atoms: _338  and  _340
REMARK  139  A    between atoms: _340  and  _341
REMARK  140  A    between atoms: _340  and  _343
REMARK  141  A    between atoms: _343  and  _344
REMARK  142  A    between atoms: _347  and  _349
REMARK  143  A    between atoms: _349  and  _350
REMARK  144  A    between atoms: _349  and  _352
REMARK  145  A    between atoms: _352  and  _353
REMARK  146  A    between atoms: _353  and  _354
REMARK  147  A    between atoms: _354  and  _355
REMARK  148  A    between atoms: _355  and  _356
REMARK  149  A    between atoms: _360  and  _362
REMARK  150  A    between atoms: _362  and  _363
REMARK  151  A    between atoms: _362  and  _365
REMARK  152  A    between atoms: _365  and  _366
REMARK  153  A    between atoms: _369  and  _371
REMARK  154  A    between atoms: _371  and  _372
REMARK  155  A    between atoms: _371  and  _374
REMARK  156  A    between atoms: _374  and  _375
REMARK  157  A    between atoms: _375  and  _376
REMARK  158  A    between atoms: _379  and  _381
REMARK  159  A    between atoms: _381  and  _382
REMARK  160  A    between atoms: _381  and  _384
REMARK  161  A    between atoms: _384  and  _385
REMARK  162  A    between atoms: _390  and  _392
REMARK  163  A    between atoms: _392  and  _393
REMARK  164  A    between atoms: _392  and  _395
REMARK  165  A    between atoms: _395  and  _396
REMARK  166  A    between atoms: _399  and  _401
REMARK  167  A    between atoms: _401  and  _402
REMARK  168  A    between atoms: _401  and  _404
REMARK  169  A    between atoms: _404  and  _405
REMARK  170  A    between atoms: _408  and  _410
REMARK  171  A    between atoms: _410  and  _411
REMARK  172  A    between atoms: _410  and  _413
REMARK  173  A    between atoms: _413  and  _414
REMARK  174  A    between atoms: _417  and  _419
REMARK  175  A    between atoms: _419  and  _420
REMARK  176  A    between atoms: _419  and  _422
REMARK  177  A    between atoms: _422  and  _423
REMARK  178  A    between atoms: _423  and  _424
REMARK  179  A    between atoms: _424  and  _425
REMARK  180  A    between atoms: _425  and  _426
REMARK  181  A    between atoms: _430  and  _432
REMARK  182  A    between atoms: _432  and  _433
REMARK  183  A    between atoms: _432  and  _435
REMARK  184  A    between atoms: _435  and  _436
REMARK  185  A    between atoms: _439  and  _441
REMARK  186  A    between atoms: _441  and  _442
REMARK  187  A    between atoms: _441  and  _444
REMARK  188  A    between atoms: _444  and  _445
REMARK  189  A    between atoms: _448  and  _450
REMARK  190  A    between atoms: _450  and  _451
REMARK  191  A    between atoms: _450  and  _453
REMARK  192  A    between atoms: _453  and  _454
REMARK  193  A    between atoms: _457  and  _459
REMARK  194  A    between atoms: _459  and  _460
REMARK  195  A    between atoms: _459  and  _462
REMARK  196  A    between atoms: _462  and  _463
REMARK  197  A    between atoms: _469  and  _471
REMARK  198  A    between atoms: _471  and  _472
REMARK  199  A    between atoms: _474  and  _476
REMARK  200  A    between atoms: _476  and  _477
REMARK  201  A    between atoms: _476  and  _479
REMARK  202  A    between atoms: _479  and  _480
REMARK                            x       y       z     vdW  Elec       q    Type
REMARK                         _______ _______ _______ _____ _____    ______ ____
ROOT
ATOM      1  CA  ASN A   4     -11.357 -39.926   0.894  0.00  0.00    +0.158 C 
ENDROOT
BRANCH   1   4
ATOM      2  C   GLU A   3     -12.052 -39.908   3.246  0.00  0.00    +0.241 C 
ATOM      3  O   GLU A   3     -13.187 -39.542   2.965  0.00  0.00    -0.273 OA
ATOM      4  N   ASN A   4     -11.106 -40.110   2.334  0.00  0.00    -0.297 N 
ATOM      5  H   ASN A   4     -10.160 -40.407   2.647  0.00  0.00    +0.150 HD
BRANCH   2   6
ATOM      6  CA  GLU A   3     -11.647 -40.100   4.707  0.00  0.00    +0.149 C 
BRANCH   6   8
ATOM      7  C   ASP A   2     -10.423 -42.236   4.570  0.00  0.00    +0.241 C 
ATOM      8  N   GLU A   3     -10.449 -40.930   4.874  0.00  0.00    -0.297 N 
ATOM      9  H   GLU A   3      -9.584 -40.487   5.244  0.00  0.00    +0.150 HD
ATOM     10  O   ASP A   2     -11.373 -42.816   4.102  0.00  0.00    -0.273 OA
BRANCH   7  11
ATOM     11  CA  ASP A   2      -9.100 -43.003   4.763  0.00  0.00    +0.160 C 
BRANCH  11  13
ATOM     12  C   LYS A   1      -7.713 -41.716   3.154  0.00  0.00    +0.238 C 
ATOM     13  N   ASP A   2      -7.894 -42.237   4.376  0.00  0.00    -0.297 N 
ATOM     14  H   ASP A   2      -7.149 -42.096   5.088  0.00  0.00    +0.150 HD
ATOM     15  O   LYS A   1      -8.578 -41.720   2.266  0.00  0.00    -0.274 OA
BRANCH  12  16
ATOM     16  CA  LYS A   1      -6.405 -40.996   2.922  0.00  0.00    +0.145 C 
BRANCH  16  17
ATOM     17  N   LYS A   1      -6.303 -40.743   1.482  0.00  0.00    -0.238 NA
ATOM     18  H   LYS A   1      -7.146 -40.878   0.888  0.00  0.00    +0.142 HD
ENDBRANCH  16  17
BRANCH  16  19
ATOM     19  CB  LYS A   1      -6.380 -39.667   3.745  0.00  0.00    +0.026 C 
BRANCH  19  20
ATOM     20  CG  LYS A   1      -7.440 -38.653   3.374  0.00  0.00    -0.000 C 
BRANCH  20  21
ATOM     21  CD  LYS A   1      -7.393 -37.465   4.336  0.00  0.00    -0.024 C 
BRANCH  21  22
ATOM     22  CE  LYS A   1      -8.389 -36.366   3.895  0.00  0.00    -0.086 C 
BRANCH  22  23
ATOM     23  NZ  LYS A   1      -8.512 -35.314   5.002  0.00  0.00    +0.380 N 
ATOM     24  HZ1 LYS A   1      -8.858 -35.767   5.872  0.00  0.00    -0.089 HD
ATOM     25  HZ2 LYS A   1      -7.580 -34.887   5.178  0.00  0.00    -0.089 HD
ATOM     26  HZ3 LYS A   1      -9.182 -34.576   4.704  0.00  0.00    -0.089 HD
ENDBRANCH  22  23
ENDBRANCH  21  22
ENDBRANCH  20  21
ENDBRANCH  19  20
ENDBRANCH  16  19
ENDBRANCH  12  16
ENDBRANCH  11  13
BRANCH  11  27
ATOM     27  CB  ASP A   2      -8.971 -43.591   6.198  0.00  0.00    +0.143 C 
BRANCH  27  28
ATOM     28  CG  ASP A   2      -8.637 -42.530   7.273  0.00  0.00    +0.367 C 
ATOM     29  OD2 ASP A   2      -8.395 -42.952   8.426  0.00  0.00    -0.246 OA
ATOM     30  OD1 ASP A   2      -8.598 -41.285   7.019  0.00  0.00    -0.246 OA
ENDBRANCH  27  28
ENDBRANCH  11  27
ENDBRANCH   7  11
ENDBRANCH   6   8
BRANCH   6  31
ATOM     31  CB  GLU A   3     -11.400 -38.670   5.239  0.00  0.00    +0.041 C 
BRANCH  31  32
ATOM     32  CG  GLU A   3     -11.344 -38.594   6.700  0.00  0.00    +0.116 C 
BRANCH  32  33
ATOM     33  CD  GLU A   3     -10.970 -37.192   7.150  0.00  0.00    +0.365 C 
ATOM     34  OE2 GLU A   3     -11.876 -36.467   7.614  0.00  0.00    -0.246 OA
ATOM     35  OE1 GLU A   3      -9.778 -36.831   7.033  0.00  0.00    -0.246 OA
ENDBRANCH  32  33
ENDBRANCH  31  32
ENDBRANCH   6  31
ENDBRANCH   2   6
ENDBRANCH   1   4
BRANCH   1  36
ATOM     36  C   ASN A   4     -11.528 -41.220   0.143  0.00  0.00    +0.241 C 
ATOM     37  N   ILE A   5     -11.915 -42.254   0.884  0.00  0.00    -0.297 N 
ATOM     38  H   ILE A   5     -11.996 -42.125   1.913  0.00  0.00    +0.150 HD
ATOM     39  O   ASN A   4     -11.330 -41.272  -1.080  0.00  0.00    -0.273 OA
BRANCH  37  40
ATOM     40  CA  ILE A   5     -12.230 -43.555   0.323  0.00  0.00    +0.149 C 
BRANCH  40  41
ATOM     41  C   ILE A   5     -13.626 -43.979   0.837  0.00  0.00    +0.241 C 
ATOM     42  O   ILE A   5     -13.859 -44.055   2.079  0.00  0.00    -0.273 OA
ATOM     43  N   LEU A   6     -14.546 -44.205  -0.109  0.00  0.00    -0.297 N 
ATOM     44  H   LEU A   6     -14.294 -44.019  -1.101  0.00  0.00    +0.150 HD
BRANCH  43  45
ATOM     45  CA  LEU A   6     -15.905 -44.708   0.193  0.00  0.00    +0.149 C 
BRANCH  45  46
ATOM     46  C   LEU A   6     -15.944 -46.198  -0.045  0.00  0.00    +0.241 C 
ATOM     47  N   ILE A   7     -16.557 -46.903   0.881  0.00  0.00    -0.298 N 
ATOM     48  H   ILE A   7     -16.846 -46.435   1.764  0.00  0.00    +0.150 HD
ATOM     49  O   LEU A   6     -15.382 -46.714  -1.021  0.00  0.00    -0.273 OA
BRANCH  47  50
ATOM     50  CA  ILE A   7     -16.844 -48.326   0.705  0.00  0.00    +0.137 C 
BRANCH  50  51
ATOM     51  CB  ILE A   7     -16.526 -49.115   1.995  0.00  0.00    +0.026 C 
ATOM     52  CG2 ILE A   7     -16.765 -50.680   1.786  0.00  0.00    +0.002 C 
BRANCH  51  53
ATOM     53  CG1 ILE A   7     -15.120 -48.764   2.494  0.00  0.00    +0.002 C 
ATOM     54  CD1 ILE A   7     -14.955 -49.137   3.965  0.00  0.00    +0.000 C 
ENDBRANCH  51  53
ENDBRANCH  50  51
BRANCH  50  55
ATOM     55  C   ILE A   7     -18.313 -48.556   0.316  0.00  0.00    +0.227 C 
ATOM     56  O   ILE A   7     -19.254 -48.201   1.057  0.00  0.00    -0.286 OA
ENDBRANCH  50  55
ENDBRANCH  47  50
ENDBRANCH  45  46
BRANCH  45  57
ATOM     57  CB  LEU A   6     -16.974 -44.025  -0.667  0.00  0.00    +0.029 C 
BRANCH  57  58
ATOM     58  CG  LEU A   6     -17.232 -42.530  -0.487  0.00  0.00    +0.002 C 
ATOM     59  CD2 LEU A   6     -17.549 -42.193   0.966  0.00  0.00    +0.000 C 
ATOM     60  CD1 LEU A   6     -18.447 -42.127  -1.397  0.00  0.00    +0.000 C 
ENDBRANCH  57  58
ENDBRANCH  45  57
ENDBRANCH  43  45
ENDBRANCH  40  41
BRANCH  40  61
ATOM     61  CB  ILE A   5     -11.157 -44.617   0.738  0.00  0.00    +0.027 C 
ATOM     62  CG2 ILE A   5     -11.635 -46.033   0.264  0.00  0.00    +0.002 C 
BRANCH  61  63
ATOM     63  CG1 ILE A   5      -9.802 -44.197   0.163  0.00  0.00    +0.002 C 
ATOM     64  CD1 ILE A   5      -8.634 -44.967   0.620  0.00  0.00    +0.000 C 
ENDBRANCH  61  63
ENDBRANCH  40  61
ENDBRANCH  37  40
ENDBRANCH   1  36
BRANCH   1  65
ATOM     65  CB  ASN A   4     -10.249 -39.079   0.293  0.00  0.00    +0.114 C 
BRANCH  65  66
ATOM     66  CG  ASN A   4     -10.372 -37.618   0.724  0.00  0.00    +0.222 C 
ATOM     67  OD1 ASN A   4     -11.469 -37.200   1.163  0.00  0.00    -0.275 OA
ATOM     68  ND2 ASN A   4      -9.275 -36.859   0.641  0.00  0.00    -0.329 N 
ATOM     69 HD21 ASN A   4      -9.305 -35.866   0.950  0.00  0.00    +0.145 HD
ATOM     70 HD22 ASN A   4      -8.392 -37.261   0.268  0.00  0.00    +0.145 HD
ENDBRANCH  65  66
ENDBRANCH   1  65
TORSDOF 32
REMARK  Name = ../refined-set-2016/1xws/1xws_pocket.pdb
REMARK  202 active torsions:
REMARK  status: ('A' for Active; 'I' for Inactive)
REMARK    1  A    between atoms: _1  and  _3
REMARK    2  A    between atoms: _3  and  _4
REMARK    3  A    between atoms: _3  and  _6
REMARK    4  A    between atoms: _6  and  _7
REMARK    5  A    between atoms: _10  and  _12
REMARK    6  A    between atoms: _12  and  _13
REMARK    7  A    between atoms: _12  and  _15
REMARK    8  A    between atoms: _15  and  _16
REMARK    9  A    between atoms: _19  and  _21
REMARK   10  A    between atoms: _21  and  _22
REMARK   11  A    between atoms: _24  and  _26
REMARK   12  A    between atoms: _26  and  _27
REMARK   13  A    between atoms: _26  and  _29
REMARK   14  A    between atoms: _29  and  _30
REMARK   15  A    between atoms: _32  and  _34
REMARK   16  A    between atoms: _34  and  _35
REMARK   17  A    between atoms: _37  and  _39
REMARK   18  A    between atoms: _39  and  _40
REMARK   19  A    between atoms: _42  and  _44
REMARK   20  A    between atoms: _44  and  _45
REMARK   21  A    between atoms: _44  and  _47
REMARK   22  A    between atoms: _47  and  _48
REMARK   23  A    between atoms: _54  and  _56
REMARK   24  A    between atoms: _56  and  _57
REMARK   25  A    between atoms: _59  and  _61
REMARK   26  A    between atoms: _61  and  _62
REMARK   27  A    between atoms: _61  and  _64
REMARK   28  A    between atoms: _64  and  _65
REMARK   29  A    between atoms: _67  and  _69
REMARK   30  A    between atoms: _69  and  _70
REMARK   31  A    between atoms: _69  and  _72
REMARK   32  A    between atoms: _75  and  _77
REMARK   33  A    between atoms: _77  and  _78
REMARK   34  A    between atoms: _77  and  _80
REMARK   35  A    between atoms: _80  and  _81
REMARK   36  A    between atoms: _86  and  _87
REMARK   37  A    between atoms: _89  and  _91
REMARK   38  A    between atoms: _91  and  _92
REMARK   39  A    between atoms: _91  and  _94
REMARK   40  A    between atoms: _94  and  _95
REMARK   41  A    between atoms: _97  and  _99
REMARK   42  A    between atoms: _99  and  _100
REMARK   43  A    between atoms: _103  and  _104
REMARK   44  A    between atoms: _109  and  _111
REMARK   45  A    between atoms: _111  and  _112
REMARK   46  A    between atoms: _111  and  _114
REMARK   47  A    between atoms: _117  and  _119
REMARK   48  A    between atoms: _119  and  _120
REMARK   49  A    between atoms: _123  and  _125
REMARK   50  A    between atoms: _125  and  _126
REMARK   51  A    between atoms: _125  and  _128
REMARK   52  A    between atoms: _128  and  _129
REMARK   53  A    between atoms: _132  and  _134
REMARK   54  A    between atoms: _134  and  _135
REMARK   55  A    between atoms: _134  and  _137
REMARK   56  A    between atoms: _137  and  _138
REMARK   57  A    between atoms: _138  and  _139
REMARK   58  A    between atoms: _139  and  _140
REMARK   59  A    between atoms: _140  and  _141
REMARK   60  A    between atoms: _145  and  _147
REMARK   61  A    between atoms: _147  and  _148
REMARK   62  A    between atoms: _147  and  _150
REMARK   63  A    between atoms: _150  and  _151
REMARK   64  A    between atoms: _156  and  _158
REMARK   65  A    between atoms: _158  and  _159
REMARK   66  A    between atoms: _158  and  _161
REMARK   67  A    between atoms: _164  and  _166
REMARK   68  A    between atoms: _166  and  _167
REMARK   69  A    between atoms: _166  and  _169
REMARK   70  A    between atoms: _169  and  _170
REMARK   71  A    between atoms: _170  and  _171
REMARK   72  A    between atoms: _174  and  _176
REMARK   73  A    between atoms: _176  and  _177
REMARK   74  A    between atoms: _176  and  _179
REMARK   75  A    between atoms: _179  and  _180
REMARK   76  A    between atoms: _183  and  _185
REMARK   77  A    between atoms: _185  and  _186
REMARK   78  A    between atoms: _185  and  _188
REMARK   79  A    between atoms: _191  and  _193
REMARK   80  A    between atoms: _193  and  _194
REMARK   81  A    between atoms: _193  and  _196
REMARK   82  A    between atoms: _196  and  _197
REMARK   83  A    between atoms: _200  and  _202
REMARK   84  A    between atoms: _202  and  _203
REMARK   85  A    between atoms: _202  and  _205
REMARK   86  A    between atoms: _205  and  _206
REMARK   87  A    between atoms: _206  and  _207
REMARK   88  A    between atoms: _207  and  _208
REMARK   89  A    between atoms: _217  and  _219
REMARK   90  A    between atoms: _219  and  _220
REMARK   91  A    between atoms: _219  and  _222
REMARK   92  A    between atoms: _222  and  _223
REMARK   93  A    between atoms: _226  and  _228
REMARK   94  A    between atoms: _228  and  _229
REMARK   95  A    between atoms: _228  and  _231
REMARK   96  A    between atoms: _231  and  _232
REMARK   97  A    between atoms: _235  and  _237
REMARK   98  A    between atoms: _237  and  _238
REMARK   99  A    between atoms: _237  and  _240
REMARK  100  A    between atoms: _240  and  _241
REMARK  101  A    between atoms: _244  and  _246
REMARK  102  A    between atoms: _246  and  _247
REMARK  103  A    between atoms: _246  and  _249
REMARK  104  A    between atoms: _249  and  _250
REMARK  105  A    between atoms: _253  and  _255
REMARK  106  A    between atoms: _255  and  _256
REMARK  107  A    between atoms: _255  and  _258
REMARK  108  A    between atoms: _258  and  _259
REMARK  109  A    between atoms: _259  and  _260
REMARK  110  A    between atoms: _263  and  _265
REMARK  111  A    between atoms: _265  and  _266
REMARK  112  A    between atoms: _265  and  _268
REMARK  113  A    between atoms: _268  and  _269
REMARK  114  A    between atoms: _269  and  _270
REMARK  115  A    between atoms: _270  and  _271
REMARK  116  A    between atoms: _281  and  _282
REMARK  117  A    between atoms: _287  and  _289
REMARK  118  A    between atoms: _289  and  _290
REMARK  119  A    between atoms: _289  and  _292
REMARK  120  A    between atoms: _292  and  _293
REMARK  121  A    between atoms: _293  and  _294
REMARK  122  A    between atoms: _297  and  _299
REMARK  123  A    between atoms: _299  and  _300
REMARK  124  A    between atoms: _299  and  _302
REMARK  125  A    between atoms: _305  and  _307
REMARK  126  A    between atoms: _307  and  _308
REMARK  127  A    between atoms: _307  and  _310
REMARK  128  A    between atoms: _310  and  _311
REMARK  129  A    between atoms: _311  and  _312
REMARK  130  A    between atoms: _317  and  _319
REMARK  131  A    between atoms: _319  and  _320
REMARK  132  A    between atoms: _319  and  _322
REMARK  133  A    between atoms: _322  and  _323
REMARK  134  A    between atoms: _326  and  _328
REMARK  135  A    between atoms: _328  and  _329
REMARK  136  A    between atoms: _328  and  _331
REMARK  137  A    between atoms: _331  and  _332
REMARK  138  A    between atoms: _338  and  _340
REMARK  139  A    between atoms: _340  and  _341
REMARK  140  A    between atoms: _340  and  _343
REMARK  141  A    between atoms: _343  and  _344
REMARK  142  A    between atoms: _347  and  _349
REMARK  143  A    between atoms: _349  and  _350
REMARK  144  A    between atoms: _349  and  _352
REMARK  145  A    between atoms: _352  and  _353
REMARK  146  A    between atoms: _353  and  _354
REMARK  147  A    between atoms: _354  and  _355
REMARK  148  A    between atoms: _355  and  _356
REMARK  149  A    between atoms: _360  and  _362
REMARK  150  A    between atoms: _362  and  _363
REMARK  151  A    between atoms: _362  and  _365
REMARK  152  A    between atoms: _365  and  _366
REMARK  153  A    between atoms: _369  and  _371
REMARK  154  A    between atoms: _371  and  _372
REMARK  155  A    between atoms: _371  and  _374
REMARK  156  A    between atoms: _374  and  _375
REMARK  157  A    between atoms: _375  and  _376
REMARK  158  A    between atoms: _379  and  _381
REMARK  159  A    between atoms: _381  and  _382
REMARK  160  A    between atoms: _381  and  _384
REMARK  161  A    between atoms: _384  and  _385
REMARK  162  A    between atoms: _390  and  _392
REMARK  163  A    between atoms: _392  and  _393
REMARK  164  A    between atoms: _392  and  _395
REMARK  165  A    between atoms: _395  and  _396
REMARK  166  A    between atoms: _399  and  _401
REMARK  167  A    between atoms: _401  and  _402
REMARK  168  A    between atoms: _401  and  _404
REMARK  169  A    between atoms: _404  and  _405
REMARK  170  A    between atoms: _408  and  _410
REMARK  171  A    between atoms: _410  and  _411
REMARK  172  A    between atoms: _410  and  _413
REMARK  173  A    between atoms: _413  and  _414
REMARK  174  A    between atoms: _417  and  _419
REMARK  175  A    between atoms: _419  and  _420
REMARK  176  A    between atoms: _419  and  _422
REMARK  177  A    between atoms: _422  and  _423
REMARK  178  A    between atoms: _423  and  _424
REMARK  179  A    between atoms: _424  and  _425
REMARK  180  A    between atoms: _425  and  _426
REMARK  181  A    between atoms: _430  and  _432
REMARK  182  A    between atoms: _432  and  _433
REMARK  183  A    between atoms: _432  and  _435
REMARK  184  A    between atoms: _435  and  _436
REMARK  185  A    between atoms: _439  and  _441
REMARK  186  A    between atoms: _441  and  _442
REMARK  187  A    between atoms: _441  and  _444
REMARK  188  A    between atoms: _444  and  _445
REMARK  189  A    between atoms: _448  and  _450
REMARK  190  A    between atoms: _450  and  _451
REMARK  191  A    between atoms: _450  and  _453
REMARK  192  A    between atoms: _453  and  _454
REMARK  193  A    between atoms: _457  and  _459
REMARK  194  A    between atoms: _459  and  _460
REMARK  195  A    between atoms: _459  and  _462
REMARK  196  A    between atoms: _462  and  _463
REMARK  197  A    between atoms: _469  and  _471
REMARK  198  A    between atoms: _471  and  _472
REMARK  199  A    between atoms: _474  and  _476
REMARK  200  A    between atoms: _476  and  _477
REMARK  201  A    between atoms: _476  and  _479
REMARK  202  A    between atoms: _479  and  _480
REMARK                            x       y       z     vdW  Elec       q    Type
REMARK                         _______ _______ _______ _____ _____    ______ ____
ROOT
ATOM      1  C   ILE A   3     -12.602 -37.944  -3.332  0.00  0.00    +0.241 C 
ATOM      2  O   ILE A   3     -11.461 -38.128  -2.860  0.00  0.00    -0.273 OA
ATOM      3  N   ASP A   4     -13.141 -36.755  -3.621  0.00  0.00    -0.297 N 
ATOM      4  H   ASP A   4     -14.063 -36.757  -4.102  0.00  0.00    +0.150 HD
ENDROOT
BRANCH   3   5
ATOM      5  CA  ASP A   4     -12.554 -35.465  -3.324  0.00  0.00    +0.160 C 
BRANCH   5   6
ATOM      6  C   ASP A   4     -11.265 -35.175  -4.097  0.00  0.00    +0.241 C 
ATOM      7  O   ASP A   4     -10.136 -35.283  -3.560  0.00  0.00    -0.273 OA
ATOM      8  N   PHE A   5     -11.447 -34.742  -5.342  0.00  0.00    -0.297 N 
ATOM      9  H   PHE A   5     -12.412 -34.715  -5.730  0.00  0.00    +0.150 HD
BRANCH   8  10
ATOM     10  CA  PHE A   5     -10.333 -34.303  -6.182  0.00  0.00    +0.153 C 
BRANCH  10  11
ATOM     11  C   PHE A   5     -10.001 -32.804  -6.036  0.00  0.00    +0.241 C 
ATOM     12  N   GLY A   6     -10.550 -32.178  -5.003  0.00  0.00    -0.295 N 
ATOM     13  H   GLY A   6     -11.148 -32.725  -4.351  0.00  0.00    +0.150 HD
ATOM     14  O   PHE A   5      -9.222 -32.255  -6.827  0.00  0.00    -0.273 OA
BRANCH  12  15
ATOM     15  CA  GLY A   6     -10.356 -30.781  -4.745  0.00  0.00    +0.176 C 
BRANCH  15  16
ATOM     16  C   GLY A   6      -8.932 -30.360  -4.432  0.00  0.00    +0.243 C 
ATOM     17  N   SER A   7      -8.047 -31.303  -4.116  0.00  0.00    -0.296 N 
ATOM     18  H   SER A   7      -8.357 -32.294  -4.055  0.00  0.00    +0.150 HD
ATOM     19  O   GLY A   6      -8.653 -29.173  -4.451  0.00  0.00    -0.273 OA
BRANCH  17  20
ATOM     20  CA  SER A   7      -6.610 -30.964  -3.846  0.00  0.00    +0.166 C 
BRANCH  20  21
ATOM     21  C   SER A   7      -5.703 -31.462  -4.984  0.00  0.00    +0.229 C 
ATOM     22  O   SER A   7      -4.459 -31.367  -4.885  0.00  0.00    -0.286 OA
ENDBRANCH  20  21
BRANCH  20  23
ATOM     23  CB  SER A   7      -6.097 -31.613  -2.530  0.00  0.00    +0.165 C 
BRANCH  23  24
ATOM     24  OG  SER A   7      -6.976 -31.406  -1.423  0.00  0.00    -0.380 OA
ATOM     25  H   SER A   7      -7.861 -31.800  -1.627  0.00  0.00    +0.211 HD
ENDBRANCH  23  24
ENDBRANCH  20  23
ENDBRANCH  17  20
ENDBRANCH  15  16
ENDBRANCH  12  15
ENDBRANCH  10  11
BRANCH  10  26
ATOM     26  CB  PHE A   5     -10.578 -34.702  -7.654  0.00  0.00    +0.055 C 
BRANCH  26  27
ATOM     27  CG  PHE A   5     -10.349 -36.175  -7.911  0.00  0.00    -0.020 A 
ATOM     28  CD2 PHE A   5     -11.308 -37.127  -7.573  0.00  0.00    -0.004 A 
ATOM     29  CE2 PHE A   5     -11.104 -38.476  -7.802  0.00  0.00    -0.000 A 
ATOM     30  CZ  PHE A   5      -9.915 -38.900  -8.382  0.00  0.00    -0.000 A 
ATOM     31  CE1 PHE A   5      -8.945 -37.957  -8.713  0.00  0.00    -0.000 A 
ATOM     32  CD1 PHE A   5      -9.150 -36.622  -8.470  0.00  0.00    -0.004 A 
ENDBRANCH  26  27
ENDBRANCH  10  26
ENDBRANCH   8  10
ENDBRANCH   5   6
BRANCH   5  33
ATOM     33  CB  ASP A   4     -12.361 -35.244  -1.821  0.00  0.00    +0.143 C 
BRANCH  33  34
ATOM     34  CG  ASP A   4     -12.092 -33.748  -1.477  0.00  0.00    +0.367 C 
ATOM     35  OD2 ASP A   4     -12.097 -33.432  -0.290  0.00  0.00    -0.246 OA
ATOM     36  OD1 ASP A   4     -11.932 -32.884  -2.380  0.00  0.00    -0.246 OA
ENDBRANCH  33  34
ENDBRANCH   5  33
ENDBRANCH   3   5
BRANCH   1  37
ATOM     37  CA  ILE A   3     -13.503 -39.135  -3.638  0.00  0.00    +0.149 C 
BRANCH  37  39
ATOM     38  C   LEU A   2     -12.724 -41.302  -4.568  0.00  0.00    +0.241 C 
ATOM     39  N   ILE A   3     -12.710 -40.384  -3.582  0.00  0.00    -0.297 N 
ATOM     40  H   ILE A   3     -12.117 -40.560  -2.746  0.00  0.00    +0.150 HD
ATOM     41  O   LEU A   2     -13.452 -41.195  -5.575  0.00  0.00    -0.273 OA
BRANCH  38  42
ATOM     42  CA  LEU A   2     -11.825 -42.541  -4.391  0.00  0.00    +0.149 C 
BRANCH  42  45
ATOM     43  C   LYS A   1     -13.410 -44.370  -3.956  0.00  0.00    +0.238 C 
ATOM     44  O   LYS A   1     -13.730 -43.948  -2.832  0.00  0.00    -0.274 OA
ATOM     45  N   LEU A   2     -12.533 -43.771  -4.756  0.00  0.00    -0.297 N 
ATOM     46  H   LEU A   2     -12.340 -44.196  -5.685  0.00  0.00    +0.150 HD
BRANCH  43  47
ATOM     47  CA  LYS A   1     -14.047 -45.632  -4.497  0.00  0.00    +0.145 C 
BRANCH  47  48
ATOM     48  N   LYS A   1     -13.962 -46.703  -3.502  0.00  0.00    -0.238 NA
ATOM     49  H   LYS A   1     -14.136 -46.470  -2.504  0.00  0.00    +0.142 HD
ENDBRANCH  47  48
BRANCH  47  50
ATOM     50  CB  LYS A   1     -15.526 -45.275  -4.801  0.00  0.00    +0.026 C 
BRANCH  50  51
ATOM     51  CG  LYS A   1     -16.492 -46.390  -5.154  0.00  0.00    -0.000 C 
BRANCH  51  52
ATOM     52  CD  LYS A   1     -16.306 -46.821  -6.572  0.00  0.00    -0.024 C 
BRANCH  52  53
ATOM     53  CE  LYS A   1     -17.444 -47.719  -7.034  0.00  0.00    -0.086 C 
BRANCH  53  54
ATOM     54  NZ  LYS A   1     -17.194 -48.075  -8.441  0.00  0.00    +0.380 N 
ATOM     55  HZ1 LYS A   1     -16.286 -48.576  -8.514  0.00  0.00    -0.089 HD
ATOM     56  HZ2 LYS A   1     -17.959 -48.690  -8.783  0.00  0.00    -0.089 HD
ATOM     57  HZ3 LYS A   1     -17.161 -47.209  -9.016  0.00  0.00    -0.089 HD
ENDBRANCH  53  54
ENDBRANCH  52  53
ENDBRANCH  51  52
ENDBRANCH  50  51
ENDBRANCH  47  50
ENDBRANCH  43  47
ENDBRANCH  42  45
BRANCH  42  58
ATOM     58  CB  LEU A   2     -10.561 -42.346  -5.244  0.00  0.00    +0.029 C 
BRANCH  58  59
ATOM     59  CG  LEU A   2      -9.439 -43.362  -5.165  0.00  0.00    +0.002 C 
ATOM     60  CD2 LEU A   2      -8.956 -43.552  -3.756  0.00  0.00    +0.000 C 
ATOM     61  CD1 LEU A   2      -8.289 -42.892  -6.098  0.00  0.00    +0.000 C 
ENDBRANCH  58  59
ENDBRANCH  42  58
ENDBRANCH  38  42
ENDBRANCH  37  39
BRANCH  37  62
ATOM     62  CB  ILE A   3     -14.678 -39.088  -2.608  0.00  0.00    +0.027 C 
ATOM     63  CG2 ILE A   3     -15.828 -39.973  -3.125  0.00  0.00    +0.002 C 
BRANCH  62  64
ATOM     64  CG1 ILE A   3     -14.175 -39.483  -1.195  0.00  0.00    +0.002 C 
ATOM     65  CD1 ILE A   3     -15.119 -39.356  -0.054  0.00  0.00    +0.000 C 
ENDBRANCH  62  64
ENDBRANCH  37  62
ENDBRANCH   1  37
TORSDOF 29
REMARK  Name = ../refined-set-2016/1xws/1xws_pocket.pdb
REMARK  202 active torsions:
REMARK  status: ('A' for Active; 'I' for Inactive)
REMARK    1  A    between atoms: _1  and  _3
REMARK    2  A    between atoms: _3  and  _4
REMARK    3  A    between atoms: _3  and  _6
REMARK    4  A    between atoms: _6  and  _7
REMARK    5  A    between atoms: _10  and  _12
REMARK    6  A    between atoms: _12  and  _13
REMARK    7  A    between atoms: _12  and  _15
REMARK    8  A    between atoms: _15  and  _16
REMARK    9  A    between atoms: _19  and  _21
REMARK   10  A    between atoms: _21  and  _22
REMARK   11  A    between atoms: _24  and  _26
REMARK   12  A    between atoms: _26  and  _27
REMARK   13  A    between atoms: _26  and  _29
REMARK   14  A    between atoms: _29  and  _30
REMARK   15  A    between atoms: _32  and  _34
REMARK   16  A    between atoms: _34  and  _35
REMARK   17  A    between atoms: _37  and  _39
REMARK   18  A    between atoms: _39  and  _40
REMARK   19  A    between atoms: _42  and  _44
REMARK   20  A    between atoms: _44  and  _45
REMARK   21  A    between atoms: _44  and  _47
REMARK   22  A    between atoms: _47  and  _48
REMARK   23  A    between atoms: _54  and  _56
REMARK   24  A    between atoms: _56  and  _57
REMARK   25  A    between atoms: _59  and  _61
REMARK   26  A    between atoms: _61  and  _62
REMARK   27  A    between atoms: _61  and  _64
REMARK   28  A    between atoms: _64  and  _65
REMARK   29  A    between atoms: _67  and  _69
REMARK   30  A    between atoms: _69  and  _70
REMARK   31  A    between atoms: _69  and  _72
REMARK   32  A    between atoms: _75  and  _77
REMARK   33  A    between atoms: _77  and  _78
REMARK   34  A    between atoms: _77  and  _80
REMARK   35  A    between atoms: _80  and  _81
REMARK   36  A    between atoms: _86  and  _87
REMARK   37  A    between atoms: _89  and  _91
REMARK   38  A    between atoms: _91  and  _92
REMARK   39  A    between atoms: _91  and  _94
REMARK   40  A    between atoms: _94  and  _95
REMARK   41  A    between atoms: _97  and  _99
REMARK   42  A    between atoms: _99  and  _100
REMARK   43  A    between atoms: _103  and  _104
REMARK   44  A    between atoms: _109  and  _111
REMARK   45  A    between atoms: _111  and  _112
REMARK   46  A    between atoms: _111  and  _114
REMARK   47  A    between atoms: _117  and  _119
REMARK   48  A    between atoms: _119  and  _120
REMARK   49  A    between atoms: _123  and  _125
REMARK   50  A    between atoms: _125  and  _126
REMARK   51  A    between atoms: _125  and  _128
REMARK   52  A    between atoms: _128  and  _129
REMARK   53  A    between atoms: _132  and  _134
REMARK   54  A    between atoms: _134  and  _135
REMARK   55  A    between atoms: _134  and  _137
REMARK   56  A    between atoms: _137  and  _138
REMARK   57  A    between atoms: _138  and  _139
REMARK   58  A    between atoms: _139  and  _140
REMARK   59  A    between atoms: _140  and  _141
REMARK   60  A    between atoms: _145  and  _147
REMARK   61  A    between atoms: _147  and  _148
REMARK   62  A    between atoms: _147  and  _150
REMARK   63  A    between atoms: _150  and  _151
REMARK   64  A    between atoms: _156  and  _158
REMARK   65  A    between atoms: _158  and  _159
REMARK   66  A    between atoms: _158  and  _161
REMARK   67  A    between atoms: _164  and  _166
REMARK   68  A    between atoms: _166  and  _167
REMARK   69  A    between atoms: _166  and  _169
REMARK   70  A    between atoms: _169  and  _170
REMARK   71  A    between atoms: _170  and  _171
REMARK   72  A    between atoms: _174  and  _176
REMARK   73  A    between atoms: _176  and  _177
REMARK   74  A    between atoms: _176  and  _179
REMARK   75  A    between atoms: _179  and  _180
REMARK   76  A    between atoms: _183  and  _185
REMARK   77  A    between atoms: _185  and  _186
REMARK   78  A    between atoms: _185  and  _188
REMARK   79  A    between atoms: _191  and  _193
REMARK   80  A    between atoms: _193  and  _194
REMARK   81  A    between atoms: _193  and  _196
REMARK   82  A    between atoms: _196  and  _197
REMARK   83  A    between atoms: _200  and  _202
REMARK   84  A    between atoms: _202  and  _203
REMARK   85  A    between atoms: _202  and  _205
REMARK   86  A    between atoms: _205  and  _206
REMARK   87  A    between atoms: _206  and  _207
REMARK   88  A    between atoms: _207  and  _208
REMARK   89  A    between atoms: _217  and  _219
REMARK   90  A    between atoms: _219  and  _220
REMARK   91  A    between atoms: _219  and  _222
REMARK   92  A    between atoms: _222  and  _223
REMARK   93  A    between atoms: _226  and  _228
REMARK   94  A    between atoms: _228  and  _229
REMARK   95  A    between atoms: _228  and  _231
REMARK   96  A    between atoms: _231  and  _232
REMARK   97  A    between atoms: _235  and  _237
REMARK   98  A    between atoms: _237  and  _238
REMARK   99  A    between atoms: _237  and  _240
REMARK  100  A    between atoms: _240  and  _241
REMARK  101  A    between atoms: _244  and  _246
REMARK  102  A    between atoms: _246  and  _247
REMARK  103  A    between atoms: _246  and  _249
REMARK  104  A    between atoms: _249  and  _250
REMARK  105  A    between atoms: _253  and  _255
REMARK  106  A    between atoms: _255  and  _256
REMARK  107  A    between atoms: _255  and  _258
REMARK  108  A    between atoms: _258  and  _259
REMARK  109  A    between atoms: _259  and  _260
REMARK  110  A    between atoms: _263  and  _265
REMARK  111  A    between atoms: _265  and  _266
REMARK  112  A    between atoms: _265  and  _268
REMARK  113  A    between atoms: _268  and  _269
REMARK  114  A    between atoms: _269  and  _270
REMARK  115  A    between atoms: _270  and  _271
REMARK  116  A    between atoms: _281  and  _282
REMARK  117  A    between atoms: _287  and  _289
REMARK  118  A    between atoms: _289  and  _290
REMARK  119  A    between atoms: _289  and  _292
REMARK  120  A    between atoms: _292  and  _293
REMARK  121  A    between atoms: _293  and  _294
REMARK  122  A    between atoms: _297  and  _299
REMARK  123  A    between atoms: _299  and  _300
REMARK  124  A    between atoms: _299  and  _302
REMARK  125  A    between atoms: _305  and  _307
REMARK  126  A    between atoms: _307  and  _308
REMARK  127  A    between atoms: _307  and  _310
REMARK  128  A    between atoms: _310  and  _311
REMARK  129  A    between atoms: _311  and  _312
REMARK  130  A    between atoms: _317  and  _319
REMARK  131  A    between atoms: _319  and  _320
REMARK  132  A    between atoms: _319  and  _322
REMARK  133  A    between atoms: _322  and  _323
REMARK  134  A    between atoms: _326  and  _328
REMARK  135  A    between atoms: _328  and  _329
REMARK  136  A    between atoms: _328  and  _331
REMARK  137  A    between atoms: _331  and  _332
REMARK  138  A    between atoms: _338  and  _340
REMARK  139  A    between atoms: _340  and  _341
REMARK  140  A    between atoms: _340  and  _343
REMARK  141  A    between atoms: _343  and  _344
REMARK  142  A    between atoms: _347  and  _349
REMARK  143  A    between atoms: _349  and  _350
REMARK  144  A    between atoms: _349  and  _352
REMARK  145  A    between atoms: _352  and  _353
REMARK  146  A    between atoms: _353  and  _354
REMARK  147  A    between atoms: _354  and  _355
REMARK  148  A    between atoms: _355  and  _356
REMARK  149  A    between atoms: _360  and  _362
REMARK  150  A    between atoms: _362  and  _363
REMARK  151  A    between atoms: _362  and  _365
REMARK  152  A    between atoms: _365  and  _366
REMARK  153  A    between atoms: _369  and  _371
REMARK  154  A    between atoms: _371  and  _372
REMARK  155  A    between atoms: _371  and  _374
REMARK  156  A    between atoms: _374  and  _375
REMARK  157  A    between atoms: _375  and  _376
REMARK  158  A    between atoms: _379  and  _381
REMARK  159  A    between atoms: _381  and  _382
REMARK  160  A    between atoms: _381  and  _384
REMARK  161  A    between atoms: _384  and  _385
REMARK  162  A    between atoms: _390  and  _392
REMARK  163  A    between atoms: _392  and  _393
REMARK  164  A    between atoms: _392  and  _395
REMARK  165  A    between atoms: _395  and  _396
REMARK  166  A    between atoms: _399  and  _401
REMARK  167  A    between atoms: _401  and  _402
REMARK  168  A    between atoms: _401  and  _404
REMARK  169  A    between atoms: _404  and  _405
REMARK  170  A    between atoms: _408  and  _410
REMARK  171  A    between atoms: _410  and  _411
REMARK  172  A    between atoms: _410  and  _413
REMARK  173  A    between atoms: _413  and  _414
REMARK  174  A    between atoms: _417  and  _419
REMARK  175  A    between atoms: _419  and  _420
REMARK  176  A    between atoms: _419  and  _422
REMARK  177  A    between atoms: _422  and  _423
REMARK  178  A    between atoms: _423  and  _424
REMARK  179  A    between atoms: _424  and  _425
REMARK  180  A    between atoms: _425  and  _426
REMARK  181  A    between atoms: _430  and  _432
REMARK  182  A    between atoms: _432  and  _433
REMARK  183  A    between atoms: _432  and  _435
REMARK  184  A    between atoms: _435  and  _436
REMARK  185  A    between atoms: _439  and  _441
REMARK  186  A    between atoms: _441  and  _442
REMARK  187  A    between atoms: _441  and  _444
REMARK  188  A    between atoms: _444  and  _445
REMARK  189  A    between atoms: _448  and  _450
REMARK  190  A    between atoms: _450  and  _451
REMARK  191  A    between atoms: _450  and  _453
REMARK  192  A    between atoms: _453  and  _454
REMARK  193  A    between atoms: _457  and  _459
REMARK  194  A    between atoms: _459  and  _460
REMARK  195  A    between atoms: _459  and  _462
REMARK  196  A    between atoms: _462  and  _463
REMARK  197  A    between atoms: _469  and  _471
REMARK  198  A    between atoms: _471  and  _472
REMARK  199  A    between atoms: _474  and  _476
REMARK  200  A    between atoms: _476  and  _477
REMARK  201  A    between atoms: _476  and  _479
REMARK  202  A    between atoms: _479  and  _480
REMARK                            x       y       z     vdW  Elec       q    Type
REMARK                         _______ _______ _______ _____ _____    ______ ____
ROOT
ATOM      1  O   HOH     1     -14.154 -34.442  -6.146  0.00  0.00    +0.000 OA
ENDROOT
TORSDOF 0
REMARK  Name = ../refined-set-2016/1xws/1xws_pocket.pdb
REMARK  202 active torsions:
REMARK  status: ('A' for Active; 'I' for Inactive)
REMARK    1  A    between atoms: _1  and  _3
REMARK    2  A    between atoms: _3  and  _4
REMARK    3  A    between atoms: _3  and  _6
REMARK    4  A    between atoms: _6  and  _7
REMARK    5  A    between atoms: _10  and  _12
REMARK    6  A    between atoms: _12  and  _13
REMARK    7  A    between atoms: _12  and  _15
REMARK    8  A    between atoms: _15  and  _16
REMARK    9  A    between atoms: _19  and  _21
REMARK   10  A    between atoms: _21  and  _22
REMARK   11  A    between atoms: _24  and  _26
REMARK   12  A    between atoms: _26  and  _27
REMARK   13  A    between atoms: _26  and  _29
REMARK   14  A    between atoms: _29  and  _30
REMARK   15  A    between atoms: _32  and  _34
REMARK   16  A    between atoms: _34  and  _35
REMARK   17  A    between atoms: _37  and  _39
REMARK   18  A    between atoms: _39  and  _40
REMARK   19  A    between atoms: _42  and  _44
REMARK   20  A    between atoms: _44  and  _45
REMARK   21  A    between atoms: _44  and  _47
REMARK   22  A    between atoms: _47  and  _48
REMARK   23  A    between atoms: _54  and  _56
REMARK   24  A    between atoms: _56  and  _57
REMARK   25  A    between atoms: _59  and  _61
REMARK   26  A    between atoms: _61  and  _62
REMARK   27  A    between atoms: _61  and  _64
REMARK   28  A    between atoms: _64  and  _65
REMARK   29  A    between atoms: _67  and  _69
REMARK   30  A    between atoms: _69  and  _70
REMARK   31  A    between atoms: _69  and  _72
REMARK   32  A    between atoms: _75  and  _77
REMARK   33  A    between atoms: _77  and  _78
REMARK   34  A    between atoms: _77  and  _80
REMARK   35  A    between atoms: _80  and  _81
REMARK   36  A    between atoms: _86  and  _87
REMARK   37  A    between atoms: _89  and  _91
REMARK   38  A    between atoms: _91  and  _92
REMARK   39  A    between atoms: _91  and  _94
REMARK   40  A    between atoms: _94  and  _95
REMARK   41  A    between atoms: _97  and  _99
REMARK   42  A    between atoms: _99  and  _100
REMARK   43  A    between atoms: _103  and  _104
REMARK   44  A    between atoms: _109  and  _111
REMARK   45  A    between atoms: _111  and  _112
REMARK   46  A    between atoms: _111  and  _114
REMARK   47  A    between atoms: _117  and  _119
REMARK   48  A    between atoms: _119  and  _120
REMARK   49  A    between atoms: _123  and  _125
REMARK   50  A    between atoms: _125  and  _126
REMARK   51  A    between atoms: _125  and  _128
REMARK   52  A    between atoms: _128  and  _129
REMARK   53  A    between atoms: _132  and  _134
REMARK   54  A    between atoms: _134  and  _135
REMARK   55  A    between atoms: _134  and  _137
REMARK   56  A    between atoms: _137  and  _138
REMARK   57  A    between atoms: _138  and  _139
REMARK   58  A    between atoms: _139  and  _140
REMARK   59  A    between atoms: _140  and  _141
REMARK   60  A    between atoms: _145  and  _147
REMARK   61  A    between atoms: _147  and  _148
REMARK   62  A    between atoms: _147  and  _150
REMARK   63  A    between atoms: _150  and  _151
REMARK   64  A    between atoms: _156  and  _158
REMARK   65  A    between atoms: _158  and  _159
REMARK   66  A    between atoms: _158  and  _161
REMARK   67  A    between atoms: _164  and  _166
REMARK   68  A    between atoms: _166  and  _167
REMARK   69  A    between atoms: _166  and  _169
REMARK   70  A    between atoms: _169  and  _170
REMARK   71  A    between atoms: _170  and  _171
REMARK   72  A    between atoms: _174  and  _176
REMARK   73  A    between atoms: _176  and  _177
REMARK   74  A    between atoms: _176  and  _179
REMARK   75  A    between atoms: _179  and  _180
REMARK   76  A    between atoms: _183  and  _185
REMARK   77  A    between atoms: _185  and  _186
REMARK   78  A    between atoms: _185  and  _188
REMARK   79  A    between atoms: _191  and  _193
REMARK   80  A    between atoms: _193  and  _194
REMARK   81  A    between atoms: _193  and  _196
REMARK   82  A    between atoms: _196  and  _197
REMARK   83  A    between atoms: _200  and  _202
REMARK   84  A    between atoms: _202  and  _203
REMARK   85  A    between atoms: _202  and  _205
REMARK   86  A    between atoms: _205  and  _206
REMARK   87  A    between atoms: _206  and  _207
REMARK   88  A    between atoms: _207  and  _208
REMARK   89  A    between atoms: _217  and  _219
REMARK   90  A    between atoms: _219  and  _220
REMARK   91  A    between atoms: _219  and  _222
REMARK   92  A    between atoms: _222  and  _223
REMARK   93  A    between atoms: _226  and  _228
REMARK   94  A    between atoms: _228  and  _229
REMARK   95  A    between atoms: _228  and  _231
REMARK   96  A    between atoms: _231  and  _232
REMARK   97  A    between atoms: _235  and  _237
REMARK   98  A    between atoms: _237  and  _238
REMARK   99  A    between atoms: _237  and  _240
REMARK  100  A    between atoms: _240  and  _241
REMARK  101  A    between atoms: _244  and  _246
REMARK  102  A    between atoms: _246  and  _247
REMARK  103  A    between atoms: _246  and  _249
REMARK  104  A    between atoms: _249  and  _250
REMARK  105  A    between atoms: _253  and  _255
REMARK  106  A    between atoms: _255  and  _256
REMARK  107  A    between atoms: _255  and  _258
REMARK  108  A    between atoms: _258  and  _259
REMARK  109  A    between atoms: _259  and  _260
REMARK  110  A    between atoms: _263  and  _265
REMARK  111  A    between atoms: _265  and  _266
REMARK  112  A    between atoms: _265  and  _268
REMARK  113  A    between atoms: _268  and  _269
REMARK  114  A    between atoms: _269  and  _270
REMARK  115  A    between atoms: _270  and  _271
REMARK  116  A    between atoms: _281  and  _282
REMARK  117  A    between atoms: _287  and  _289
REMARK  118  A    between atoms: _289  and  _290
REMARK  119  A    between atoms: _289  and  _292
REMARK  120  A    between atoms: _292  and  _293
REMARK  121  A    between atoms: _293  and  _294
REMARK  122  A    between atoms: _297  and  _299
REMARK  123  A    between atoms: _299  and  _300
REMARK  124  A    between atoms: _299  and  _302
REMARK  125  A    between atoms: _305  and  _307
REMARK  126  A    between atoms: _307  and  _308
REMARK  127  A    between atoms: _307  and  _310
REMARK  128  A    between atoms: _310  and  _311
REMARK  129  A    between atoms: _311  and  _312
REMARK  130  A    between atoms: _317  and  _319
REMARK  131  A    between atoms: _319  and  _320
REMARK  132  A    between atoms: _319  and  _322
REMARK  133  A    between atoms: _322  and  _323
REMARK  134  A    between atoms: _326  and  _328
REMARK  135  A    between atoms: _328  and  _329
REMARK  136  A    between atoms: _328  and  _331
REMARK  137  A    between atoms: _331  and  _332
REMARK  138  A    between atoms: _338  and  _340
REMARK  139  A    between atoms: _340  and  _341
REMARK  140  A    between atoms: _340  and  _343
REMARK  141  A    between atoms: _343  and  _344
REMARK  142  A    between atoms: _347  and  _349
REMARK  143  A    between atoms: _349  and  _350
REMARK  144  A    between atoms: _349  and  _352
REMARK  145  A    between atoms: _352  and  _353
REMARK  146  A    between atoms: _353  and  _354
REMARK  147  A    between atoms: _354  and  _355
REMARK  148  A    between atoms: _355  and  _356
REMARK  149  A    between atoms: _360  and  _362
REMARK  150  A    between atoms: _362  and  _363
REMARK  151  A    between atoms: _362  and  _365
REMARK  152  A    between atoms: _365  and  _366
REMARK  153  A    between atoms: _369  and  _371
REMARK  154  A    between atoms: _371  and  _372
REMARK  155  A    between atoms: _371  and  _374
REMARK  156  A    between atoms: _374  and  _375
REMARK  157  A    between atoms: _375  and  _376
REMARK  158  A    between atoms: _379  and  _381
REMARK  159  A    between atoms: _381  and  _382
REMARK  160  A    between atoms: _381  and  _384
REMARK  161  A    between atoms: _384  and  _385
REMARK  162  A    between atoms: _390  and  _392
REMARK  163  A    between atoms: _392  and  _393
REMARK  164  A    between atoms: _392  and  _395
REMARK  165  A    between atoms: _395  and  _396
REMARK  166  A    between atoms: _399  and  _401
REMARK  167  A    between atoms: _401  and  _402
REMARK  168  A    between atoms: _401  and  _404
REMARK  169  A    between atoms: _404  and  _405
REMARK  170  A    between atoms: _408  and  _410
REMARK  171  A    between atoms: _410  and  _411
REMARK  172  A    between atoms: _410  and  _413
REMARK  173  A    between atoms: _413  and  _414
REMARK  174  A    between atoms: _417  and  _419
REMARK  175  A    between atoms: _419  and  _420
REMARK  176  A    between atoms: _419  and  _422
REMARK  177  A    between atoms: _422  and  _423
REMARK  178  A    between atoms: _423  and  _424
REMARK  179  A    between atoms: _424  and  _425
REMARK  180  A    between atoms: _425  and  _426
REMARK  181  A    between atoms: _430  and  _432
REMARK  182  A    between atoms: _432  and  _433
REMARK  183  A    between atoms: _432  and  _435
REMARK  184  A    between atoms: _435  and  _436
REMARK  185  A    between atoms: _439  and  _441
REMARK  186  A    between atoms: _441  and  _442
REMARK  187  A    between atoms: _441  and  _444
REMARK  188  A    between atoms: _444  and  _445
REMARK  189  A    between atoms: _448  and  _450
REMARK  190  A    between atoms: _450  and  _451
REMARK  191  A    between atoms: _450  and  _453
REMARK  192  A    between atoms: _453  and  _454
REMARK  193  A    between atoms: _457  and  _459
REMARK  194  A    between atoms: _459  and  _460
REMARK  195  A    between atoms: _459  and  _462
REMARK  196  A    between atoms: _462  and  _463
REMARK  197  A    between atoms: _469  and  _471
REMARK  198  A    between atoms: _471  and  _472
REMARK  199  A    between atoms: _474  and  _476
REMARK  200  A    between atoms: _476  and  _477
REMARK  201  A    between atoms: _476  and  _479
REMARK  202  A    between atoms: _479  and  _480
REMARK                            x       y       z     vdW  Elec       q    Type
REMARK                         _______ _______ _______ _____ _____    ______ ____
ROOT
ATOM      1  O   HOH     1     -15.512 -36.918  -5.328  0.00  0.00    +0.000 OA
ENDROOT
TORSDOF 0
REMARK  Name = ../refined-set-2016/1xws/1xws_pocket.pdb
REMARK  202 active torsions:
REMARK  status: ('A' for Active; 'I' for Inactive)
REMARK    1  A    between atoms: _1  and  _3
REMARK    2  A    between atoms: _3  and  _4
REMARK    3  A    between atoms: _3  and  _6
REMARK    4  A    between atoms: _6  and  _7
REMARK    5  A    between atoms: _10  and  _12
REMARK    6  A    between atoms: _12  and  _13
REMARK    7  A    between atoms: _12  and  _15
REMARK    8  A    between atoms: _15  and  _16
REMARK    9  A    between atoms: _19  and  _21
REMARK   10  A    between atoms: _21  and  _22
REMARK   11  A    between atoms: _24  and  _26
REMARK   12  A    between atoms: _26  and  _27
REMARK   13  A    between atoms: _26  and  _29
REMARK   14  A    between atoms: _29  and  _30
REMARK   15  A    between atoms: _32  and  _34
REMARK   16  A    between atoms: _34  and  _35
REMARK   17  A    between atoms: _37  and  _39
REMARK   18  A    between atoms: _39  and  _40
REMARK   19  A    between atoms: _42  and  _44
REMARK   20  A    between atoms: _44  and  _45
REMARK   21  A    between atoms: _44  and  _47
REMARK   22  A    between atoms: _47  and  _48
REMARK   23  A    between atoms: _54  and  _56
REMARK   24  A    between atoms: _56  and  _57
REMARK   25  A    between atoms: _59  and  _61
REMARK   26  A    between atoms: _61  and  _62
REMARK   27  A    between atoms: _61  and  _64
REMARK   28  A    between atoms: _64  and  _65
REMARK   29  A    between atoms: _67  and  _69
REMARK   30  A    between atoms: _69  and  _70
REMARK   31  A    between atoms: _69  and  _72
REMARK   32  A    between atoms: _75  and  _77
REMARK   33  A    between atoms: _77  and  _78
REMARK   34  A    between atoms: _77  and  _80
REMARK   35  A    between atoms: _80  and  _81
REMARK   36  A    between atoms: _86  and  _87
REMARK   37  A    between atoms: _89  and  _91
REMARK   38  A    between atoms: _91  and  _92
REMARK   39  A    between atoms: _91  and  _94
REMARK   40  A    between atoms: _94  and  _95
REMARK   41  A    between atoms: _97  and  _99
REMARK   42  A    between atoms: _99  and  _100
REMARK   43  A    between atoms: _103  and  _104
REMARK   44  A    between atoms: _109  and  _111
REMARK   45  A    between atoms: _111  and  _112
REMARK   46  A    between atoms: _111  and  _114
REMARK   47  A    between atoms: _117  and  _119
REMARK   48  A    between atoms: _119  and  _120
REMARK   49  A    between atoms: _123  and  _125
REMARK   50  A    between atoms: _125  and  _126
REMARK   51  A    between atoms: _125  and  _128
REMARK   52  A    between atoms: _128  and  _129
REMARK   53  A    between atoms: _132  and  _134
REMARK   54  A    between atoms: _134  and  _135
REMARK   55  A    between atoms: _134  and  _137
REMARK   56  A    between atoms: _137  and  _138
REMARK   57  A    between atoms: _138  and  _139
REMARK   58  A    between atoms: _139  and  _140
REMARK   59  A    between atoms: _140  and  _141
REMARK   60  A    between atoms: _145  and  _147
REMARK   61  A    between atoms: _147  and  _148
REMARK   62  A    between atoms: _147  and  _150
REMARK   63  A    between atoms: _150  and  _151
REMARK   64  A    between atoms: _156  and  _158
REMARK   65  A    between atoms: _158  and  _159
REMARK   66  A    between atoms: _158  and  _161
REMARK   67  A    between atoms: _164  and  _166
REMARK   68  A    between atoms: _166  and  _167
REMARK   69  A    between atoms: _166  and  _169
REMARK   70  A    between atoms: _169  and  _170
REMARK   71  A    between atoms: _170  and  _171
REMARK   72  A    between atoms: _174  and  _176
REMARK   73  A    between atoms: _176  and  _177
REMARK   74  A    between atoms: _176  and  _179
REMARK   75  A    between atoms: _179  and  _180
REMARK   76  A    between atoms: _183  and  _185
REMARK   77  A    between atoms: _185  and  _186
REMARK   78  A    between atoms: _185  and  _188
REMARK   79  A    between atoms: _191  and  _193
REMARK   80  A    between atoms: _193  and  _194
REMARK   81  A    between atoms: _193  and  _196
REMARK   82  A    between atoms: _196  and  _197
REMARK   83  A    between atoms: _200  and  _202
REMARK   84  A    between atoms: _202  and  _203
REMARK   85  A    between atoms: _202  and  _205
REMARK   86  A    between atoms: _205  and  _206
REMARK   87  A    between atoms: _206  and  _207
REMARK   88  A    between atoms: _207  and  _208
REMARK   89  A    between atoms: _217  and  _219
REMARK   90  A    between atoms: _219  and  _220
REMARK   91  A    between atoms: _219  and  _222
REMARK   92  A    between atoms: _222  and  _223
REMARK   93  A    between atoms: _226  and  _228
REMARK   94  A    between atoms: _228  and  _229
REMARK   95  A    between atoms: _228  and  _231
REMARK   96  A    between atoms: _231  and  _232
REMARK   97  A    between atoms: _235  and  _237
REMARK   98  A    between atoms: _237  and  _238
REMARK   99  A    between atoms: _237  and  _240
REMARK  100  A    between atoms: _240  and  _241
REMARK  101  A    between atoms: _244  and  _246
REMARK  102  A    between atoms: _246  and  _247
REMARK  103  A    between atoms: _246  and  _249
REMARK  104  A    between atoms: _249  and  _250
REMARK  105  A    between atoms: _253  and  _255
REMARK  106  A    between atoms: _255  and  _256
REMARK  107  A    between atoms: _255  and  _258
REMARK  108  A    between atoms: _258  and  _259
REMARK  109  A    between atoms: _259  and  _260
REMARK  110  A    between atoms: _263  and  _265
REMARK  111  A    between atoms: _265  and  _266
REMARK  112  A    between atoms: _265  and  _268
REMARK  113  A    between atoms: _268  and  _269
REMARK  114  A    between atoms: _269  and  _270
REMARK  115  A    between atoms: _270  and  _271
REMARK  116  A    between atoms: _281  and  _282
REMARK  117  A    between atoms: _287  and  _289
REMARK  118  A    between atoms: _289  and  _290
REMARK  119  A    between atoms: _289  and  _292
REMARK  120  A    between atoms: _292  and  _293
REMARK  121  A    between atoms: _293  and  _294
REMARK  122  A    between atoms: _297  and  _299
REMARK  123  A    between atoms: _299  and  _300
REMARK  124  A    between atoms: _299  and  _302
REMARK  125  A    between atoms: _305  and  _307
REMARK  126  A    between atoms: _307  and  _308
REMARK  127  A    between atoms: _307  and  _310
REMARK  128  A    between atoms: _310  and  _311
REMARK  129  A    between atoms: _311  and  _312
REMARK  130  A    between atoms: _317  and  _319
REMARK  131  A    between atoms: _319  and  _320
REMARK  132  A    between atoms: _319  and  _322
REMARK  133  A    between atoms: _322  and  _323
REMARK  134  A    between atoms: _326  and  _328
REMARK  135  A    between atoms: _328  and  _329
REMARK  136  A    between atoms: _328  and  _331
REMARK  137  A    between atoms: _331  and  _332
REMARK  138  A    between atoms: _338  and  _340
REMARK  139  A    between atoms: _340  and  _341
REMARK  140  A    between atoms: _340  and  _343
REMARK  141  A    between atoms: _343  and  _344
REMARK  142  A    between atoms: _347  and  _349
REMARK  143  A    between atoms: _349  and  _350
REMARK  144  A    between atoms: _349  and  _352
REMARK  145  A    between atoms: _352  and  _353
REMARK  146  A    between atoms: _353  and  _354
REMARK  147  A    between atoms: _354  and  _355
REMARK  148  A    between atoms: _355  and  _356
REMARK  149  A    between atoms: _360  and  _362
REMARK  150  A    between atoms: _362  and  _363
REMARK  151  A    between atoms: _362  and  _365
REMARK  152  A    between atoms: _365  and  _366
REMARK  153  A    between atoms: _369  and  _371
REMARK  154  A    between atoms: _371  and  _372
REMARK  155  A    between atoms: _371  and  _374
REMARK  156  A    between atoms: _374  and  _375
REMARK  157  A    between atoms: _375  and  _376
REMARK  158  A    between atoms: _379  and  _381
REMARK  159  A    between atoms: _381  and  _382
REMARK  160  A    between atoms: _381  and  _384
REMARK  161  A    between atoms: _384  and  _385
REMARK  162  A    between atoms: _390  and  _392
REMARK  163  A    between atoms: _392  and  _393
REMARK  164  A    between atoms: _392  and  _395
REMARK  165  A    between atoms: _395  and  _396
REMARK  166  A    between atoms: _399  and  _401
REMARK  167  A    between atoms: _401  and  _402
REMARK  168  A    between atoms: _401  and  _404
REMARK  169  A    between atoms: _404  and  _405
REMARK  170  A    between atoms: _408  and  _410
REMARK  171  A    between atoms: _410  and  _411
REMARK  172  A    between atoms: _410  and  _413
REMARK  173  A    between atoms: _413  and  _414
REMARK  174  A    between atoms: _417  and  _419
REMARK  175  A    between atoms: _419  and  _420
REMARK  176  A    between atoms: _419  and  _422
REMARK  177  A    between atoms: _422  and  _423
REMARK  178  A    between atoms: _423  and  _424
REMARK  179  A    between atoms: _424  and  _425
REMARK  180  A    between atoms: _425  and  _426
REMARK  181  A    between atoms: _430  and  _432
REMARK  182  A    between atoms: _432  and  _433
REMARK  183  A    between atoms: _432  and  _435
REMARK  184  A    between atoms: _435  and  _436
REMARK  185  A    between atoms: _439  and  _441
REMARK  186  A    between atoms: _441  and  _442
REMARK  187  A    between atoms: _441  and  _444
REMARK  188  A    between atoms: _444  and  _445
REMARK  189  A    between atoms: _448  and  _450
REMARK  190  A    between atoms: _450  and  _451
REMARK  191  A    between atoms: _450  and  _453
REMARK  192  A    between atoms: _453  and  _454
REMARK  193  A    between atoms: _457  and  _459
REMARK  194  A    between atoms: _459  and  _460
REMARK  195  A    between atoms: _459  and  _462
REMARK  196  A    between atoms: _462  and  _463
REMARK  197  A    between atoms: _469  and  _471
REMARK  198  A    between atoms: _471  and  _472
REMARK  199  A    between atoms: _474  and  _476
REMARK  200  A    between atoms: _476  and  _477
REMARK  201  A    between atoms: _476  and  _479
REMARK  202  A    between atoms: _479  and  _480
REMARK                            x       y       z     vdW  Elec       q    Type
REMARK                         _______ _______ _______ _____ _____    ______ ____
ROOT
ATOM      1  O   HOH     1     -14.512 -38.805  -7.076  0.00  0.00    +0.000 OA
ENDROOT
TORSDOF 0
REMARK  Name = ../refined-set-2016/1xws/1xws_pocket.pdb
REMARK  202 active torsions:
REMARK  status: ('A' for Active; 'I' for Inactive)
REMARK    1  A    between atoms: _1  and  _3
REMARK    2  A    between atoms: _3  and  _4
REMARK    3  A    between atoms: _3  and  _6
REMARK    4  A    between atoms: _6  and  _7
REMARK    5  A    between atoms: _10  and  _12
REMARK    6  A    between atoms: _12  and  _13
REMARK    7  A    between atoms: _12  and  _15
REMARK    8  A    between atoms: _15  and  _16
REMARK    9  A    between atoms: _19  and  _21
REMARK   10  A    between atoms: _21  and  _22
REMARK   11  A    between atoms: _24  and  _26
REMARK   12  A    between atoms: _26  and  _27
REMARK   13  A    between atoms: _26  and  _29
REMARK   14  A    between atoms: _29  and  _30
REMARK   15  A    between atoms: _32  and  _34
REMARK   16  A    between atoms: _34  and  _35
REMARK   17  A    between atoms: _37  and  _39
REMARK   18  A    between atoms: _39  and  _40
REMARK   19  A    between atoms: _42  and  _44
REMARK   20  A    between atoms: _44  and  _45
REMARK   21  A    between atoms: _44  and  _47
REMARK   22  A    between atoms: _47  and  _48
REMARK   23  A    between atoms: _54  and  _56
REMARK   24  A    between atoms: _56  and  _57
REMARK   25  A    between atoms: _59  and  _61
REMARK   26  A    between atoms: _61  and  _62
REMARK   27  A    between atoms: _61  and  _64
REMARK   28  A    between atoms: _64  and  _65
REMARK   29  A    between atoms: _67  and  _69
REMARK   30  A    between atoms: _69  and  _70
REMARK   31  A    between atoms: _69  and  _72
REMARK   32  A    between atoms: _75  and  _77
REMARK   33  A    between atoms: _77  and  _78
REMARK   34  A    between atoms: _77  and  _80
REMARK   35  A    between atoms: _80  and  _81
REMARK   36  A    between atoms: _86  and  _87
REMARK   37  A    between atoms: _89  and  _91
REMARK   38  A    between atoms: _91  and  _92
REMARK   39  A    between atoms: _91  and  _94
REMARK   40  A    between atoms: _94  and  _95
REMARK   41  A    between atoms: _97  and  _99
REMARK   42  A    between atoms: _99  and  _100
REMARK   43  A    between atoms: _103  and  _104
REMARK   44  A    between atoms: _109  and  _111
REMARK   45  A    between atoms: _111  and  _112
REMARK   46  A    between atoms: _111  and  _114
REMARK   47  A    between atoms: _117  and  _119
REMARK   48  A    between atoms: _119  and  _120
REMARK   49  A    between atoms: _123  and  _125
REMARK   50  A    between atoms: _125  and  _126
REMARK   51  A    between atoms: _125  and  _128
REMARK   52  A    between atoms: _128  and  _129
REMARK   53  A    between atoms: _132  and  _134
REMARK   54  A    between atoms: _134  and  _135
REMARK   55  A    between atoms: _134  and  _137
REMARK   56  A    between atoms: _137  and  _138
REMARK   57  A    between atoms: _138  and  _139
REMARK   58  A    between atoms: _139  and  _140
REMARK   59  A    between atoms: _140  and  _141
REMARK   60  A    between atoms: _145  and  _147
REMARK   61  A    between atoms: _147  and  _148
REMARK   62  A    between atoms: _147  and  _150
REMARK   63  A    between atoms: _150  and  _151
REMARK   64  A    between atoms: _156  and  _158
REMARK   65  A    between atoms: _158  and  _159
REMARK   66  A    between atoms: _158  and  _161
REMARK   67  A    between atoms: _164  and  _166
REMARK   68  A    between atoms: _166  and  _167
REMARK   69  A    between atoms: _166  and  _169
REMARK   70  A    between atoms: _169  and  _170
REMARK   71  A    between atoms: _170  and  _171
REMARK   72  A    between atoms: _174  and  _176
REMARK   73  A    between atoms: _176  and  _177
REMARK   74  A    between atoms: _176  and  _179
REMARK   75  A    between atoms: _179  and  _180
REMARK   76  A    between atoms: _183  and  _185
REMARK   77  A    between atoms: _185  and  _186
REMARK   78  A    between atoms: _185  and  _188
REMARK   79  A    between atoms: _191  and  _193
REMARK   80  A    between atoms: _193  and  _194
REMARK   81  A    between atoms: _193  and  _196
REMARK   82  A    between atoms: _196  and  _197
REMARK   83  A    between atoms: _200  and  _202
REMARK   84  A    between atoms: _202  and  _203
REMARK   85  A    between atoms: _202  and  _205
REMARK   86  A    between atoms: _205  and  _206
REMARK   87  A    between atoms: _206  and  _207
REMARK   88  A    between atoms: _207  and  _208
REMARK   89  A    between atoms: _217  and  _219
REMARK   90  A    between atoms: _219  and  _220
REMARK   91  A    between atoms: _219  and  _222
REMARK   92  A    between atoms: _222  and  _223
REMARK   93  A    between atoms: _226  and  _228
REMARK   94  A    between atoms: _228  and  _229
REMARK   95  A    between atoms: _228  and  _231
REMARK   96  A    between atoms: _231  and  _232
REMARK   97  A    between atoms: _235  and  _237
REMARK   98  A    between atoms: _237  and  _238
REMARK   99  A    between atoms: _237  and  _240
REMARK  100  A    between atoms: _240  and  _241
REMARK  101  A    between atoms: _244  and  _246
REMARK  102  A    between atoms: _246  and  _247
REMARK  103  A    between atoms: _246  and  _249
REMARK  104  A    between atoms: _249  and  _250
REMARK  105  A    between atoms: _253  and  _255
REMARK  106  A    between atoms: _255  and  _256
REMARK  107  A    between atoms: _255  and  _258
REMARK  108  A    between atoms: _258  and  _259
REMARK  109  A    between atoms: _259  and  _260
REMARK  110  A    between atoms: _263  and  _265
REMARK  111  A    between atoms: _265  and  _266
REMARK  112  A    between atoms: _265  and  _268
REMARK  113  A    between atoms: _268  and  _269
REMARK  114  A    between atoms: _269  and  _270
REMARK  115  A    between atoms: _270  and  _271
REMARK  116  A    between atoms: _281  and  _282
REMARK  117  A    between atoms: _287  and  _289
REMARK  118  A    between atoms: _289  and  _290
REMARK  119  A    between atoms: _289  and  _292
REMARK  120  A    between atoms: _292  and  _293
REMARK  121  A    between atoms: _293  and  _294
REMARK  122  A    between atoms: _297  and  _299
REMARK  123  A    between atoms: _299  and  _300
REMARK  124  A    between atoms: _299  and  _302
REMARK  125  A    between atoms: _305  and  _307
REMARK  126  A    between atoms: _307  and  _308
REMARK  127  A    between atoms: _307  and  _310
REMARK  128  A    between atoms: _310  and  _311
REMARK  129  A    between atoms: _311  and  _312
REMARK  130  A    between atoms: _317  and  _319
REMARK  131  A    between atoms: _319  and  _320
REMARK  132  A    between atoms: _319  and  _322
REMARK  133  A    between atoms: _322  and  _323
REMARK  134  A    between atoms: _326  and  _328
REMARK  135  A    between atoms: _328  and  _329
REMARK  136  A    between atoms: _328  and  _331
REMARK  137  A    between atoms: _331  and  _332
REMARK  138  A    between atoms: _338  and  _340
REMARK  139  A    between atoms: _340  and  _341
REMARK  140  A    between atoms: _340  and  _343
REMARK  141  A    between atoms: _343  and  _344
REMARK  142  A    between atoms: _347  and  _349
REMARK  143  A    between atoms: _349  and  _350
REMARK  144  A    between atoms: _349  and  _352
REMARK  145  A    between atoms: _352  and  _353
REMARK  146  A    between atoms: _353  and  _354
REMARK  147  A    between atoms: _354  and  _355
REMARK  148  A    between atoms: _355  and  _356
REMARK  149  A    between atoms: _360  and  _362
REMARK  150  A    between atoms: _362  and  _363
REMARK  151  A    between atoms: _362  and  _365
REMARK  152  A    between atoms: _365  and  _366
REMARK  153  A    between atoms: _369  and  _371
REMARK  154  A    between atoms: _371  and  _372
REMARK  155  A    between atoms: _371  and  _374
REMARK  156  A    between atoms: _374  and  _375
REMARK  157  A    between atoms: _375  and  _376
REMARK  158  A    between atoms: _379  and  _381
REMARK  159  A    between atoms: _381  and  _382
REMARK  160  A    between atoms: _381  and  _384
REMARK  161  A    between atoms: _384  and  _385
REMARK  162  A    between atoms: _390  and  _392
REMARK  163  A    between atoms: _392  and  _393
REMARK  164  A    between atoms: _392  and  _395
REMARK  165  A    between atoms: _395  and  _396
REMARK  166  A    between atoms: _399  and  _401
REMARK  167  A    between atoms: _401  and  _402
REMARK  168  A    between atoms: _401  and  _404
REMARK  169  A    between atoms: _404  and  _405
REMARK  170  A    between atoms: _408  and  _410
REMARK  171  A    between atoms: _410  and  _411
REMARK  172  A    between atoms: _410  and  _413
REMARK  173  A    between atoms: _413  and  _414
REMARK  174  A    between atoms: _417  and  _419
REMARK  175  A    between atoms: _419  and  _420
REMARK  176  A    between atoms: _419  and  _422
REMARK  177  A    between atoms: _422  and  _423
REMARK  178  A    between atoms: _423  and  _424
REMARK  179  A    between atoms: _424  and  _425
REMARK  180  A    between atoms: _425  and  _426
REMARK  181  A    between atoms: _430  and  _432
REMARK  182  A    between atoms: _432  and  _433
REMARK  183  A    between atoms: _432  and  _435
REMARK  184  A    between atoms: _435  and  _436
REMARK  185  A    between atoms: _439  and  _441
REMARK  186  A    between atoms: _441  and  _442
REMARK  187  A    between atoms: _441  and  _444
REMARK  188  A    between atoms: _444  and  _445
REMARK  189  A    between atoms: _448  and  _450
REMARK  190  A    between atoms: _450  and  _451
REMARK  191  A    between atoms: _450  and  _453
REMARK  192  A    between atoms: _453  and  _454
REMARK  193  A    between atoms: _457  and  _459
REMARK  194  A    between atoms: _459  and  _460
REMARK  195  A    between atoms: _459  and  _462
REMARK  196  A    between atoms: _462  and  _463
REMARK  197  A    between atoms: _469  and  _471
REMARK  198  A    between atoms: _471  and  _472
REMARK  199  A    between atoms: _474  and  _476
REMARK  200  A    between atoms: _476  and  _477
REMARK  201  A    between atoms: _476  and  _479
REMARK  202  A    between atoms: _479  and  _480
REMARK                            x       y       z     vdW  Elec       q    Type
REMARK                         _______ _______ _______ _____ _____    ______ ____
ROOT
ATOM      1  O   HOH     1     -12.411 -34.838   1.823  0.00  0.00    +0.000 OA
ENDROOT
TORSDOF 0
REMARK  Name = ../refined-set-2016/1xws/1xws_pocket.pdb
REMARK  202 active torsions:
REMARK  status: ('A' for Active; 'I' for Inactive)
REMARK    1  A    between atoms: _1  and  _3
REMARK    2  A    between atoms: _3  and  _4
REMARK    3  A    between atoms: _3  and  _6
REMARK    4  A    between atoms: _6  and  _7
REMARK    5  A    between atoms: _10  and  _12
REMARK    6  A    between atoms: _12  and  _13
REMARK    7  A    between atoms: _12  and  _15
REMARK    8  A    between atoms: _15  and  _16
REMARK    9  A    between atoms: _19  and  _21
REMARK   10  A    between atoms: _21  and  _22
REMARK   11  A    between atoms: _24  and  _26
REMARK   12  A    between atoms: _26  and  _27
REMARK   13  A    between atoms: _26  and  _29
REMARK   14  A    between atoms: _29  and  _30
REMARK   15  A    between atoms: _32  and  _34
REMARK   16  A    between atoms: _34  and  _35
REMARK   17  A    between atoms: _37  and  _39
REMARK   18  A    between atoms: _39  and  _40
REMARK   19  A    between atoms: _42  and  _44
REMARK   20  A    between atoms: _44  and  _45
REMARK   21  A    between atoms: _44  and  _47
REMARK   22  A    between atoms: _47  and  _48
REMARK   23  A    between atoms: _54  and  _56
REMARK   24  A    between atoms: _56  and  _57
REMARK   25  A    between atoms: _59  and  _61
REMARK   26  A    between atoms: _61  and  _62
REMARK   27  A    between atoms: _61  and  _64
REMARK   28  A    between atoms: _64  and  _65
REMARK   29  A    between atoms: _67  and  _69
REMARK   30  A    between atoms: _69  and  _70
REMARK   31  A    between atoms: _69  and  _72
REMARK   32  A    between atoms: _75  and  _77
REMARK   33  A    between atoms: _77  and  _78
REMARK   34  A    between atoms: _77  and  _80
REMARK   35  A    between atoms: _80  and  _81
REMARK   36  A    between atoms: _86  and  _87
REMARK   37  A    between atoms: _89  and  _91
REMARK   38  A    between atoms: _91  and  _92
REMARK   39  A    between atoms: _91  and  _94
REMARK   40  A    between atoms: _94  and  _95
REMARK   41  A    between atoms: _97  and  _99
REMARK   42  A    between atoms: _99  and  _100
REMARK   43  A    between atoms: _103  and  _104
REMARK   44  A    between atoms: _109  and  _111
REMARK   45  A    between atoms: _111  and  _112
REMARK   46  A    between atoms: _111  and  _114
REMARK   47  A    between atoms: _117  and  _119
REMARK   48  A    between atoms: _119  and  _120
REMARK   49  A    between atoms: _123  and  _125
REMARK   50  A    between atoms: _125  and  _126
REMARK   51  A    between atoms: _125  and  _128
REMARK   52  A    between atoms: _128  and  _129
REMARK   53  A    between atoms: _132  and  _134
REMARK   54  A    between atoms: _134  and  _135
REMARK   55  A    between atoms: _134  and  _137
REMARK   56  A    between atoms: _137  and  _138
REMARK   57  A    between atoms: _138  and  _139
REMARK   58  A    between atoms: _139  and  _140
REMARK   59  A    between atoms: _140  and  _141
REMARK   60  A    between atoms: _145  and  _147
REMARK   61  A    between atoms: _147  and  _148
REMARK   62  A    between atoms: _147  and  _150
REMARK   63  A    between atoms: _150  and  _151
REMARK   64  A    between atoms: _156  and  _158
REMARK   65  A    between atoms: _158  and  _159
REMARK   66  A    between atoms: _158  and  _161
REMARK   67  A    between atoms: _164  and  _166
REMARK   68  A    between atoms: _166  and  _167
REMARK   69  A    between atoms: _166  and  _169
REMARK   70  A    between atoms: _169  and  _170
REMARK   71  A    between atoms: _170  and  _171
REMARK   72  A    between atoms: _174  and  _176
REMARK   73  A    between atoms: _176  and  _177
REMARK   74  A    between atoms: _176  and  _179
REMARK   75  A    between atoms: _179  and  _180
REMARK   76  A    between atoms: _183  and  _185
REMARK   77  A    between atoms: _185  and  _186
REMARK   78  A    between atoms: _185  and  _188
REMARK   79  A    between atoms: _191  and  _193
REMARK   80  A    between atoms: _193  and  _194
REMARK   81  A    between atoms: _193  and  _196
REMARK   82  A    between atoms: _196  and  _197
REMARK   83  A    between atoms: _200  and  _202
REMARK   84  A    between atoms: _202  and  _203
REMARK   85  A    between atoms: _202  and  _205
REMARK   86  A    between atoms: _205  and  _206
REMARK   87  A    between atoms: _206  and  _207
REMARK   88  A    between atoms: _207  and  _208
REMARK   89  A    between atoms: _217  and  _219
REMARK   90  A    between atoms: _219  and  _220
REMARK   91  A    between atoms: _219  and  _222
REMARK   92  A    between atoms: _222  and  _223
REMARK   93  A    between atoms: _226  and  _228
REMARK   94  A    between atoms: _228  and  _229
REMARK   95  A    between atoms: _228  and  _231
REMARK   96  A    between atoms: _231  and  _232
REMARK   97  A    between atoms: _235  and  _237
REMARK   98  A    between atoms: _237  and  _238
REMARK   99  A    between atoms: _237  and  _240
REMARK  100  A    between atoms: _240  and  _241
REMARK  101  A    between atoms: _244  and  _246
REMARK  102  A    between atoms: _246  and  _247
REMARK  103  A    between atoms: _246  and  _249
REMARK  104  A    between atoms: _249  and  _250
REMARK  105  A    between atoms: _253  and  _255
REMARK  106  A    between atoms: _255  and  _256
REMARK  107  A    between atoms: _255  and  _258
REMARK  108  A    between atoms: _258  and  _259
REMARK  109  A    between atoms: _259  and  _260
REMARK  110  A    between atoms: _263  and  _265
REMARK  111  A    between atoms: _265  and  _266
REMARK  112  A    between atoms: _265  and  _268
REMARK  113  A    between atoms: _268  and  _269
REMARK  114  A    between atoms: _269  and  _270
REMARK  115  A    between atoms: _270  and  _271
REMARK  116  A    between atoms: _281  and  _282
REMARK  117  A    between atoms: _287  and  _289
REMARK  118  A    between atoms: _289  and  _290
REMARK  119  A    between atoms: _289  and  _292
REMARK  120  A    between atoms: _292  and  _293
REMARK  121  A    between atoms: _293  and  _294
REMARK  122  A    between atoms: _297  and  _299
REMARK  123  A    between atoms: _299  and  _300
REMARK  124  A    between atoms: _299  and  _302
REMARK  125  A    between atoms: _305  and  _307
REMARK  126  A    between atoms: _307  and  _308
REMARK  127  A    between atoms: _307  and  _310
REMARK  128  A    between atoms: _310  and  _311
REMARK  129  A    between atoms: _311  and  _312
REMARK  130  A    between atoms: _317  and  _319
REMARK  131  A    between atoms: _319  and  _320
REMARK  132  A    between atoms: _319  and  _322
REMARK  133  A    between atoms: _322  and  _323
REMARK  134  A    between atoms: _326  and  _328
REMARK  135  A    between atoms: _328  and  _329
REMARK  136  A    between atoms: _328  and  _331
REMARK  137  A    between atoms: _331  and  _332
REMARK  138  A    between atoms: _338  and  _340
REMARK  139  A    between atoms: _340  and  _341
REMARK  140  A    between atoms: _340  and  _343
REMARK  141  A    between atoms: _343  and  _344
REMARK  142  A    between atoms: _347  and  _349
REMARK  143  A    between atoms: _349  and  _350
REMARK  144  A    between atoms: _349  and  _352
REMARK  145  A    between atoms: _352  and  _353
REMARK  146  A    between atoms: _353  and  _354
REMARK  147  A    between atoms: _354  and  _355
REMARK  148  A    between atoms: _355  and  _356
REMARK  149  A    between atoms: _360  and  _362
REMARK  150  A    between atoms: _362  and  _363
REMARK  151  A    between atoms: _362  and  _365
REMARK  152  A    between atoms: _365  and  _366
REMARK  153  A    between atoms: _369  and  _371
REMARK  154  A    between atoms: _371  and  _372
REMARK  155  A    between atoms: _371  and  _374
REMARK  156  A    between atoms: _374  and  _375
REMARK  157  A    between atoms: _375  and  _376
REMARK  158  A    between atoms: _379  and  _381
REMARK  159  A    between atoms: _381  and  _382
REMARK  160  A    between atoms: _381  and  _384
REMARK  161  A    between atoms: _384  and  _385
REMARK  162  A    between atoms: _390  and  _392
REMARK  163  A    between atoms: _392  and  _393
REMARK  164  A    between atoms: _392  and  _395
REMARK  165  A    between atoms: _395  and  _396
REMARK  166  A    between atoms: _399  and  _401
REMARK  167  A    between atoms: _401  and  _402
REMARK  168  A    between atoms: _401  and  _404
REMARK  169  A    between atoms: _404  and  _405
REMARK  170  A    between atoms: _408  and  _410
REMARK  171  A    between atoms: _410  and  _411
REMARK  172  A    between atoms: _410  and  _413
REMARK  173  A    between atoms: _413  and  _414
REMARK  174  A    between atoms: _417  and  _419
REMARK  175  A    between atoms: _419  and  _420
REMARK  176  A    between atoms: _419  and  _422
REMARK  177  A    between atoms: _422  and  _423
REMARK  178  A    between atoms: _423  and  _424
REMARK  179  A    between atoms: _424  and  _425
REMARK  180  A    between atoms: _425  and  _426
REMARK  181  A    between atoms: _430  and  _432
REMARK  182  A    between atoms: _432  and  _433
REMARK  183  A    between atoms: _432  and  _435
REMARK  184  A    between atoms: _435  and  _436
REMARK  185  A    between atoms: _439  and  _441
REMARK  186  A    between atoms: _441  and  _442
REMARK  187  A    between atoms: _441  and  _444
REMARK  188  A    between atoms: _444  and  _445
REMARK  189  A    between atoms: _448  and  _450
REMARK  190  A    between atoms: _450  and  _451
REMARK  191  A    between atoms: _450  and  _453
REMARK  192  A    between atoms: _453  and  _454
REMARK  193  A    between atoms: _457  and  _459
REMARK  194  A    between atoms: _459  and  _460
REMARK  195  A    between atoms: _459  and  _462
REMARK  196  A    between atoms: _462  and  _463
REMARK  197  A    between atoms: _469  and  _471
REMARK  198  A    between atoms: _471  and  _472
REMARK  199  A    between atoms: _474  and  _476
REMARK  200  A    between atoms: _476  and  _477
REMARK  201  A    between atoms: _476  and  _479
REMARK  202  A    between atoms: _479  and  _480
REMARK                            x       y       z     vdW  Elec       q    Type
REMARK                         _______ _______ _______ _____ _____    ______ ____
ROOT
ATOM      1  O   HOH     1     -25.682 -43.592   0.170  0.00  0.00    +0.000 OA
ENDROOT
TORSDOF 0
REMARK  Name = ../refined-set-2016/1xws/1xws_pocket.pdb
REMARK  202 active torsions:
REMARK  status: ('A' for Active; 'I' for Inactive)
REMARK    1  A    between atoms: _1  and  _3
REMARK    2  A    between atoms: _3  and  _4
REMARK    3  A    between atoms: _3  and  _6
REMARK    4  A    between atoms: _6  and  _7
REMARK    5  A    between atoms: _10  and  _12
REMARK    6  A    between atoms: _12  and  _13
REMARK    7  A    between atoms: _12  and  _15
REMARK    8  A    between atoms: _15  and  _16
REMARK    9  A    between atoms: _19  and  _21
REMARK   10  A    between atoms: _21  and  _22
REMARK   11  A    between atoms: _24  and  _26
REMARK   12  A    between atoms: _26  and  _27
REMARK   13  A    between atoms: _26  and  _29
REMARK   14  A    between atoms: _29  and  _30
REMARK   15  A    between atoms: _32  and  _34
REMARK   16  A    between atoms: _34  and  _35
REMARK   17  A    between atoms: _37  and  _39
REMARK   18  A    between atoms: _39  and  _40
REMARK   19  A    between atoms: _42  and  _44
REMARK   20  A    between atoms: _44  and  _45
REMARK   21  A    between atoms: _44  and  _47
REMARK   22  A    between atoms: _47  and  _48
REMARK   23  A    between atoms: _54  and  _56
REMARK   24  A    between atoms: _56  and  _57
REMARK   25  A    between atoms: _59  and  _61
REMARK   26  A    between atoms: _61  and  _62
REMARK   27  A    between atoms: _61  and  _64
REMARK   28  A    between atoms: _64  and  _65
REMARK   29  A    between atoms: _67  and  _69
REMARK   30  A    between atoms: _69  and  _70
REMARK   31  A    between atoms: _69  and  _72
REMARK   32  A    between atoms: _75  and  _77
REMARK   33  A    between atoms: _77  and  _78
REMARK   34  A    between atoms: _77  and  _80
REMARK   35  A    between atoms: _80  and  _81
REMARK   36  A    between atoms: _86  and  _87
REMARK   37  A    between atoms: _89  and  _91
REMARK   38  A    between atoms: _91  and  _92
REMARK   39  A    between atoms: _91  and  _94
REMARK   40  A    between atoms: _94  and  _95
REMARK   41  A    between atoms: _97  and  _99
REMARK   42  A    between atoms: _99  and  _100
REMARK   43  A    between atoms: _103  and  _104
REMARK   44  A    between atoms: _109  and  _111
REMARK   45  A    between atoms: _111  and  _112
REMARK   46  A    between atoms: _111  and  _114
REMARK   47  A    between atoms: _117  and  _119
REMARK   48  A    between atoms: _119  and  _120
REMARK   49  A    between atoms: _123  and  _125
REMARK   50  A    between atoms: _125  and  _126
REMARK   51  A    between atoms: _125  and  _128
REMARK   52  A    between atoms: _128  and  _129
REMARK   53  A    between atoms: _132  and  _134
REMARK   54  A    between atoms: _134  and  _135
REMARK   55  A    between atoms: _134  and  _137
REMARK   56  A    between atoms: _137  and  _138
REMARK   57  A    between atoms: _138  and  _139
REMARK   58  A    between atoms: _139  and  _140
REMARK   59  A    between atoms: _140  and  _141
REMARK   60  A    between atoms: _145  and  _147
REMARK   61  A    between atoms: _147  and  _148
REMARK   62  A    between atoms: _147  and  _150
REMARK   63  A    between atoms: _150  and  _151
REMARK   64  A    between atoms: _156  and  _158
REMARK   65  A    between atoms: _158  and  _159
REMARK   66  A    between atoms: _158  and  _161
REMARK   67  A    between atoms: _164  and  _166
REMARK   68  A    between atoms: _166  and  _167
REMARK   69  A    between atoms: _166  and  _169
REMARK   70  A    between atoms: _169  and  _170
REMARK   71  A    between atoms: _170  and  _171
REMARK   72  A    between atoms: _174  and  _176
REMARK   73  A    between atoms: _176  and  _177
REMARK   74  A    between atoms: _176  and  _179
REMARK   75  A    between atoms: _179  and  _180
REMARK   76  A    between atoms: _183  and  _185
REMARK   77  A    between atoms: _185  and  _186
REMARK   78  A    between atoms: _185  and  _188
REMARK   79  A    between atoms: _191  and  _193
REMARK   80  A    between atoms: _193  and  _194
REMARK   81  A    between atoms: _193  and  _196
REMARK   82  A    between atoms: _196  and  _197
REMARK   83  A    between atoms: _200  and  _202
REMARK   84  A    between atoms: _202  and  _203
REMARK   85  A    between atoms: _202  and  _205
REMARK   86  A    between atoms: _205  and  _206
REMARK   87  A    between atoms: _206  and  _207
REMARK   88  A    between atoms: _207  and  _208
REMARK   89  A    between atoms: _217  and  _219
REMARK   90  A    between atoms: _219  and  _220
REMARK   91  A    between atoms: _219  and  _222
REMARK   92  A    between atoms: _222  and  _223
REMARK   93  A    between atoms: _226  and  _228
REMARK   94  A    between atoms: _228  and  _229
REMARK   95  A    between atoms: _228  and  _231
REMARK   96  A    between atoms: _231  and  _232
REMARK   97  A    between atoms: _235  and  _237
REMARK   98  A    between atoms: _237  and  _238
REMARK   99  A    between atoms: _237  and  _240
REMARK  100  A    between atoms: _240  and  _241
REMARK  101  A    between atoms: _244  and  _246
REMARK  102  A    between atoms: _246  and  _247
REMARK  103  A    between atoms: _246  and  _249
REMARK  104  A    between atoms: _249  and  _250
REMARK  105  A    between atoms: _253  and  _255
REMARK  106  A    between atoms: _255  and  _256
REMARK  107  A    between atoms: _255  and  _258
REMARK  108  A    between atoms: _258  and  _259
REMARK  109  A    between atoms: _259  and  _260
REMARK  110  A    between atoms: _263  and  _265
REMARK  111  A    between atoms: _265  and  _266
REMARK  112  A    between atoms: _265  and  _268
REMARK  113  A    between atoms: _268  and  _269
REMARK  114  A    between atoms: _269  and  _270
REMARK  115  A    between atoms: _270  and  _271
REMARK  116  A    between atoms: _281  and  _282
REMARK  117  A    between atoms: _287  and  _289
REMARK  118  A    between atoms: _289  and  _290
REMARK  119  A    between atoms: _289  and  _292
REMARK  120  A    between atoms: _292  and  _293
REMARK  121  A    between atoms: _293  and  _294
REMARK  122  A    between atoms: _297  and  _299
REMARK  123  A    between atoms: _299  and  _300
REMARK  124  A    between atoms: _299  and  _302
REMARK  125  A    between atoms: _305  and  _307
REMARK  126  A    between atoms: _307  and  _308
REMARK  127  A    between atoms: _307  and  _310
REMARK  128  A    between atoms: _310  and  _311
REMARK  129  A    between atoms: _311  and  _312
REMARK  130  A    between atoms: _317  and  _319
REMARK  131  A    between atoms: _319  and  _320
REMARK  132  A    between atoms: _319  and  _322
REMARK  133  A    between atoms: _322  and  _323
REMARK  134  A    between atoms: _326  and  _328
REMARK  135  A    between atoms: _328  and  _329
REMARK  136  A    between atoms: _328  and  _331
REMARK  137  A    between atoms: _331  and  _332
REMARK  138  A    between atoms: _338  and  _340
REMARK  139  A    between atoms: _340  and  _341
REMARK  140  A    between atoms: _340  and  _343
REMARK  141  A    between atoms: _343  and  _344
REMARK  142  A    between atoms: _347  and  _349
REMARK  143  A    between atoms: _349  and  _350
REMARK  144  A    between atoms: _349  and  _352
REMARK  145  A    between atoms: _352  and  _353
REMARK  146  A    between atoms: _353  and  _354
REMARK  147  A    between atoms: _354  and  _355
REMARK  148  A    between atoms: _355  and  _356
REMARK  149  A    between atoms: _360  and  _362
REMARK  150  A    between atoms: _362  and  _363
REMARK  151  A    between atoms: _362  and  _365
REMARK  152  A    between atoms: _365  and  _366
REMARK  153  A    between atoms: _369  and  _371
REMARK  154  A    between atoms: _371  and  _372
REMARK  155  A    between atoms: _371  and  _374
REMARK  156  A    between atoms: _374  and  _375
REMARK  157  A    between atoms: _375  and  _376
REMARK  158  A    between atoms: _379  and  _381
REMARK  159  A    between atoms: _381  and  _382
REMARK  160  A    between atoms: _381  and  _384
REMARK  161  A    between atoms: _384  and  _385
REMARK  162  A    between atoms: _390  and  _392
REMARK  163  A    between atoms: _392  and  _393
REMARK  164  A    between atoms: _392  and  _395
REMARK  165  A    between atoms: _395  and  _396
REMARK  166  A    between atoms: _399  and  _401
REMARK  167  A    between atoms: _401  and  _402
REMARK  168  A    between atoms: _401  and  _404
REMARK  169  A    between atoms: _404  and  _405
REMARK  170  A    between atoms: _408  and  _410
REMARK  171  A    between atoms: _410  and  _411
REMARK  172  A    between atoms: _410  and  _413
REMARK  173  A    between atoms: _413  and  _414
REMARK  174  A    between atoms: _417  and  _419
REMARK  175  A    between atoms: _419  and  _420
REMARK  176  A    between atoms: _419  and  _422
REMARK  177  A    between atoms: _422  and  _423
REMARK  178  A    between atoms: _423  and  _424
REMARK  179  A    between atoms: _424  and  _425
REMARK  180  A    between atoms: _425  and  _426
REMARK  181  A    between atoms: _430  and  _432
REMARK  182  A    between atoms: _432  and  _433
REMARK  183  A    between atoms: _432  and  _435
REMARK  184  A    between atoms: _435  and  _436
REMARK  185  A    between atoms: _439  and  _441
REMARK  186  A    between atoms: _441  and  _442
REMARK  187  A    between atoms: _441  and  _444
REMARK  188  A    between atoms: _444  and  _445
REMARK  189  A    between atoms: _448  and  _450
REMARK  190  A    between atoms: _450  and  _451
REMARK  191  A    between atoms: _450  and  _453
REMARK  192  A    between atoms: _453  and  _454
REMARK  193  A    between atoms: _457  and  _459
REMARK  194  A    between atoms: _459  and  _460
REMARK  195  A    between atoms: _459  and  _462
REMARK  196  A    between atoms: _462  and  _463
REMARK  197  A    between atoms: _469  and  _471
REMARK  198  A    between atoms: _471  and  _472
REMARK  199  A    between atoms: _474  and  _476
REMARK  200  A    between atoms: _476  and  _477
REMARK  201  A    between atoms: _476  and  _479
REMARK  202  A    between atoms: _479  and  _480
REMARK                            x       y       z     vdW  Elec       q    Type
REMARK                         _______ _______ _______ _____ _____    ______ ____
ROOT
ATOM      1  O   HOH     1     -22.049 -29.945   7.701  0.00  0.00    +0.000 OA
ENDROOT
TORSDOF 0
REMARK  Name = ../refined-set-2016/1xws/1xws_pocket.pdb
REMARK  202 active torsions:
REMARK  status: ('A' for Active; 'I' for Inactive)
REMARK    1  A    between atoms: _1  and  _3
REMARK    2  A    between atoms: _3  and  _4
REMARK    3  A    between atoms: _3  and  _6
REMARK    4  A    between atoms: _6  and  _7
REMARK    5  A    between atoms: _10  and  _12
REMARK    6  A    between atoms: _12  and  _13
REMARK    7  A    between atoms: _12  and  _15
REMARK    8  A    between atoms: _15  and  _16
REMARK    9  A    between atoms: _19  and  _21
REMARK   10  A    between atoms: _21  and  _22
REMARK   11  A    between atoms: _24  and  _26
REMARK   12  A    between atoms: _26  and  _27
REMARK   13  A    between atoms: _26  and  _29
REMARK   14  A    between atoms: _29  and  _30
REMARK   15  A    between atoms: _32  and  _34
REMARK   16  A    between atoms: _34  and  _35
REMARK   17  A    between atoms: _37  and  _39
REMARK   18  A    between atoms: _39  and  _40
REMARK   19  A    between atoms: _42  and  _44
REMARK   20  A    between atoms: _44  and  _45
REMARK   21  A    between atoms: _44  and  _47
REMARK   22  A    between atoms: _47  and  _48
REMARK   23  A    between atoms: _54  and  _56
REMARK   24  A    between atoms: _56  and  _57
REMARK   25  A    between atoms: _59  and  _61
REMARK   26  A    between atoms: _61  and  _62
REMARK   27  A    between atoms: _61  and  _64
REMARK   28  A    between atoms: _64  and  _65
REMARK   29  A    between atoms: _67  and  _69
REMARK   30  A    between atoms: _69  and  _70
REMARK   31  A    between atoms: _69  and  _72
REMARK   32  A    between atoms: _75  and  _77
REMARK   33  A    between atoms: _77  and  _78
REMARK   34  A    between atoms: _77  and  _80
REMARK   35  A    between atoms: _80  and  _81
REMARK   36  A    between atoms: _86  and  _87
REMARK   37  A    between atoms: _89  and  _91
REMARK   38  A    between atoms: _91  and  _92
REMARK   39  A    between atoms: _91  and  _94
REMARK   40  A    between atoms: _94  and  _95
REMARK   41  A    between atoms: _97  and  _99
REMARK   42  A    between atoms: _99  and  _100
REMARK   43  A    between atoms: _103  and  _104
REMARK   44  A    between atoms: _109  and  _111
REMARK   45  A    between atoms: _111  and  _112
REMARK   46  A    between atoms: _111  and  _114
REMARK   47  A    between atoms: _117  and  _119
REMARK   48  A    between atoms: _119  and  _120
REMARK   49  A    between atoms: _123  and  _125
REMARK   50  A    between atoms: _125  and  _126
REMARK   51  A    between atoms: _125  and  _128
REMARK   52  A    between atoms: _128  and  _129
REMARK   53  A    between atoms: _132  and  _134
REMARK   54  A    between atoms: _134  and  _135
REMARK   55  A    between atoms: _134  and  _137
REMARK   56  A    between atoms: _137  and  _138
REMARK   57  A    between atoms: _138  and  _139
REMARK   58  A    between atoms: _139  and  _140
REMARK   59  A    between atoms: _140  and  _141
REMARK   60  A    between atoms: _145  and  _147
REMARK   61  A    between atoms: _147  and  _148
REMARK   62  A    between atoms: _147  and  _150
REMARK   63  A    between atoms: _150  and  _151
REMARK   64  A    between atoms: _156  and  _158
REMARK   65  A    between atoms: _158  and  _159
REMARK   66  A    between atoms: _158  and  _161
REMARK   67  A    between atoms: _164  and  _166
REMARK   68  A    between atoms: _166  and  _167
REMARK   69  A    between atoms: _166  and  _169
REMARK   70  A    between atoms: _169  and  _170
REMARK   71  A    between atoms: _170  and  _171
REMARK   72  A    between atoms: _174  and  _176
REMARK   73  A    between atoms: _176  and  _177
REMARK   74  A    between atoms: _176  and  _179
REMARK   75  A    between atoms: _179  and  _180
REMARK   76  A    between atoms: _183  and  _185
REMARK   77  A    between atoms: _185  and  _186
REMARK   78  A    between atoms: _185  and  _188
REMARK   79  A    between atoms: _191  and  _193
REMARK   80  A    between atoms: _193  and  _194
REMARK   81  A    between atoms: _193  and  _196
REMARK   82  A    between atoms: _196  and  _197
REMARK   83  A    between atoms: _200  and  _202
REMARK   84  A    between atoms: _202  and  _203
REMARK   85  A    between atoms: _202  and  _205
REMARK   86  A    between atoms: _205  and  _206
REMARK   87  A    between atoms: _206  and  _207
REMARK   88  A    between atoms: _207  and  _208
REMARK   89  A    between atoms: _217  and  _219
REMARK   90  A    between atoms: _219  and  _220
REMARK   91  A    between atoms: _219  and  _222
REMARK   92  A    between atoms: _222  and  _223
REMARK   93  A    between atoms: _226  and  _228
REMARK   94  A    between atoms: _228  and  _229
REMARK   95  A    between atoms: _228  and  _231
REMARK   96  A    between atoms: _231  and  _232
REMARK   97  A    between atoms: _235  and  _237
REMARK   98  A    between atoms: _237  and  _238
REMARK   99  A    between atoms: _237  and  _240
REMARK  100  A    between atoms: _240  and  _241
REMARK  101  A    between atoms: _244  and  _246
REMARK  102  A    between atoms: _246  and  _247
REMARK  103  A    between atoms: _246  and  _249
REMARK  104  A    between atoms: _249  and  _250
REMARK  105  A    between atoms: _253  and  _255
REMARK  106  A    between atoms: _255  and  _256
REMARK  107  A    between atoms: _255  and  _258
REMARK  108  A    between atoms: _258  and  _259
REMARK  109  A    between atoms: _259  and  _260
REMARK  110  A    between atoms: _263  and  _265
REMARK  111  A    between atoms: _265  and  _266
REMARK  112  A    between atoms: _265  and  _268
REMARK  113  A    between atoms: _268  and  _269
REMARK  114  A    between atoms: _269  and  _270
REMARK  115  A    between atoms: _270  and  _271
REMARK  116  A    between atoms: _281  and  _282
REMARK  117  A    between atoms: _287  and  _289
REMARK  118  A    between atoms: _289  and  _290
REMARK  119  A    between atoms: _289  and  _292
REMARK  120  A    between atoms: _292  and  _293
REMARK  121  A    between atoms: _293  and  _294
REMARK  122  A    between atoms: _297  and  _299
REMARK  123  A    between atoms: _299  and  _300
REMARK  124  A    between atoms: _299  and  _302
REMARK  125  A    between atoms: _305  and  _307
REMARK  126  A    between atoms: _307  and  _308
REMARK  127  A    between atoms: _307  and  _310
REMARK  128  A    between atoms: _310  and  _311
REMARK  129  A    between atoms: _311  and  _312
REMARK  130  A    between atoms: _317  and  _319
REMARK  131  A    between atoms: _319  and  _320
REMARK  132  A    between atoms: _319  and  _322
REMARK  133  A    between atoms: _322  and  _323
REMARK  134  A    between atoms: _326  and  _328
REMARK  135  A    between atoms: _328  and  _329
REMARK  136  A    between atoms: _328  and  _331
REMARK  137  A    between atoms: _331  and  _332
REMARK  138  A    between atoms: _338  and  _340
REMARK  139  A    between atoms: _340  and  _341
REMARK  140  A    between atoms: _340  and  _343
REMARK  141  A    between atoms: _343  and  _344
REMARK  142  A    between atoms: _347  and  _349
REMARK  143  A    between atoms: _349  and  _350
REMARK  144  A    between atoms: _349  and  _352
REMARK  145  A    between atoms: _352  and  _353
REMARK  146  A    between atoms: _353  and  _354
REMARK  147  A    between atoms: _354  and  _355
REMARK  148  A    between atoms: _355  and  _356
REMARK  149  A    between atoms: _360  and  _362
REMARK  150  A    between atoms: _362  and  _363
REMARK  151  A    between atoms: _362  and  _365
REMARK  152  A    between atoms: _365  and  _366
REMARK  153  A    between atoms: _369  and  _371
REMARK  154  A    between atoms: _371  and  _372
REMARK  155  A    between atoms: _371  and  _374
REMARK  156  A    between atoms: _374  and  _375
REMARK  157  A    between atoms: _375  and  _376
REMARK  158  A    between atoms: _379  and  _381
REMARK  159  A    between atoms: _381  and  _382
REMARK  160  A    between atoms: _381  and  _384
REMARK  161  A    between atoms: _384  and  _385
REMARK  162  A    between atoms: _390  and  _392
REMARK  163  A    between atoms: _392  and  _393
REMARK  164  A    between atoms: _392  and  _395
REMARK  165  A    between atoms: _395  and  _396
REMARK  166  A    between atoms: _399  and  _401
REMARK  167  A    between atoms: _401  and  _402
REMARK  168  A    between atoms: _401  and  _404
REMARK  169  A    between atoms: _404  and  _405
REMARK  170  A    between atoms: _408  and  _410
REMARK  171  A    between atoms: _410  and  _411
REMARK  172  A    between atoms: _410  and  _413
REMARK  173  A    between atoms: _413  and  _414
REMARK  174  A    between atoms: _417  and  _419
REMARK  175  A    between atoms: _419  and  _420
REMARK  176  A    between atoms: _419  and  _422
REMARK  177  A    between atoms: _422  and  _423
REMARK  178  A    between atoms: _423  and  _424
REMARK  179  A    between atoms: _424  and  _425
REMARK  180  A    between atoms: _425  and  _426
REMARK  181  A    between atoms: _430  and  _432
REMARK  182  A    between atoms: _432  and  _433
REMARK  183  A    between atoms: _432  and  _435
REMARK  184  A    between atoms: _435  and  _436
REMARK  185  A    between atoms: _439  and  _441
REMARK  186  A    between atoms: _441  and  _442
REMARK  187  A    between atoms: _441  and  _444
REMARK  188  A    between atoms: _444  and  _445
REMARK  189  A    between atoms: _448  and  _450
REMARK  190  A    between atoms: _450  and  _451
REMARK  191  A    between atoms: _450  and  _453
REMARK  192  A    between atoms: _453  and  _454
REMARK  193  A    between atoms: _457  and  _459
REMARK  194  A    between atoms: _459  and  _460
REMARK  195  A    between atoms: _459  and  _462
REMARK  196  A    between atoms: _462  and  _463
REMARK  197  A    between atoms: _469  and  _471
REMARK  198  A    between atoms: _471  and  _472
REMARK  199  A    between atoms: _474  and  _476
REMARK  200  A    between atoms: _476  and  _477
REMARK  201  A    between atoms: _476  and  _479
REMARK  202  A    between atoms: _479  and  _480
REMARK                            x       y       z     vdW  Elec       q    Type
REMARK                         _______ _______ _______ _____ _____    ______ ____
ROOT
ATOM      1  O   HOH     1     -24.605 -43.662  -8.166  0.00  0.00    +0.000 OA
ENDROOT
TORSDOF 0
REMARK  Name = ../refined-set-2016/1xws/1xws_pocket.pdb
REMARK  202 active torsions:
REMARK  status: ('A' for Active; 'I' for Inactive)
REMARK    1  A    between atoms: _1  and  _3
REMARK    2  A    between atoms: _3  and  _4
REMARK    3  A    between atoms: _3  and  _6
REMARK    4  A    between atoms: _6  and  _7
REMARK    5  A    between atoms: _10  and  _12
REMARK    6  A    between atoms: _12  and  _13
REMARK    7  A    between atoms: _12  and  _15
REMARK    8  A    between atoms: _15  and  _16
REMARK    9  A    between atoms: _19  and  _21
REMARK   10  A    between atoms: _21  and  _22
REMARK   11  A    between atoms: _24  and  _26
REMARK   12  A    between atoms: _26  and  _27
REMARK   13  A    between atoms: _26  and  _29
REMARK   14  A    between atoms: _29  and  _30
REMARK   15  A    between atoms: _32  and  _34
REMARK   16  A    between atoms: _34  and  _35
REMARK   17  A    between atoms: _37  and  _39
REMARK   18  A    between atoms: _39  and  _40
REMARK   19  A    between atoms: _42  and  _44
REMARK   20  A    between atoms: _44  and  _45
REMARK   21  A    between atoms: _44  and  _47
REMARK   22  A    between atoms: _47  and  _48
REMARK   23  A    between atoms: _54  and  _56
REMARK   24  A    between atoms: _56  and  _57
REMARK   25  A    between atoms: _59  and  _61
REMARK   26  A    between atoms: _61  and  _62
REMARK   27  A    between atoms: _61  and  _64
REMARK   28  A    between atoms: _64  and  _65
REMARK   29  A    between atoms: _67  and  _69
REMARK   30  A    between atoms: _69  and  _70
REMARK   31  A    between atoms: _69  and  _72
REMARK   32  A    between atoms: _75  and  _77
REMARK   33  A    between atoms: _77  and  _78
REMARK   34  A    between atoms: _77  and  _80
REMARK   35  A    between atoms: _80  and  _81
REMARK   36  A    between atoms: _86  and  _87
REMARK   37  A    between atoms: _89  and  _91
REMARK   38  A    between atoms: _91  and  _92
REMARK   39  A    between atoms: _91  and  _94
REMARK   40  A    between atoms: _94  and  _95
REMARK   41  A    between atoms: _97  and  _99
REMARK   42  A    between atoms: _99  and  _100
REMARK   43  A    between atoms: _103  and  _104
REMARK   44  A    between atoms: _109  and  _111
REMARK   45  A    between atoms: _111  and  _112
REMARK   46  A    between atoms: _111  and  _114
REMARK   47  A    between atoms: _117  and  _119
REMARK   48  A    between atoms: _119  and  _120
REMARK   49  A    between atoms: _123  and  _125
REMARK   50  A    between atoms: _125  and  _126
REMARK   51  A    between atoms: _125  and  _128
REMARK   52  A    between atoms: _128  and  _129
REMARK   53  A    between atoms: _132  and  _134
REMARK   54  A    between atoms: _134  and  _135
REMARK   55  A    between atoms: _134  and  _137
REMARK   56  A    between atoms: _137  and  _138
REMARK   57  A    between atoms: _138  and  _139
REMARK   58  A    between atoms: _139  and  _140
REMARK   59  A    between atoms: _140  and  _141
REMARK   60  A    between atoms: _145  and  _147
REMARK   61  A    between atoms: _147  and  _148
REMARK   62  A    between atoms: _147  and  _150
REMARK   63  A    between atoms: _150  and  _151
REMARK   64  A    between atoms: _156  and  _158
REMARK   65  A    between atoms: _158  and  _159
REMARK   66  A    between atoms: _158  and  _161
REMARK   67  A    between atoms: _164  and  _166
REMARK   68  A    between atoms: _166  and  _167
REMARK   69  A    between atoms: _166  and  _169
REMARK   70  A    between atoms: _169  and  _170
REMARK   71  A    between atoms: _170  and  _171
REMARK   72  A    between atoms: _174  and  _176
REMARK   73  A    between atoms: _176  and  _177
REMARK   74  A    between atoms: _176  and  _179
REMARK   75  A    between atoms: _179  and  _180
REMARK   76  A    between atoms: _183  and  _185
REMARK   77  A    between atoms: _185  and  _186
REMARK   78  A    between atoms: _185  and  _188
REMARK   79  A    between atoms: _191  and  _193
REMARK   80  A    between atoms: _193  and  _194
REMARK   81  A    between atoms: _193  and  _196
REMARK   82  A    between atoms: _196  and  _197
REMARK   83  A    between atoms: _200  and  _202
REMARK   84  A    between atoms: _202  and  _203
REMARK   85  A    between atoms: _202  and  _205
REMARK   86  A    between atoms: _205  and  _206
REMARK   87  A    between atoms: _206  and  _207
REMARK   88  A    between atoms: _207  and  _208
REMARK   89  A    between atoms: _217  and  _219
REMARK   90  A    between atoms: _219  and  _220
REMARK   91  A    between atoms: _219  and  _222
REMARK   92  A    between atoms: _222  and  _223
REMARK   93  A    between atoms: _226  and  _228
REMARK   94  A    between atoms: _228  and  _229
REMARK   95  A    between atoms: _228  and  _231
REMARK   96  A    between atoms: _231  and  _232
REMARK   97  A    between atoms: _235  and  _237
REMARK   98  A    between atoms: _237  and  _238
REMARK   99  A    between atoms: _237  and  _240
REMARK  100  A    between atoms: _240  and  _241
REMARK  101  A    between atoms: _244  and  _246
REMARK  102  A    between atoms: _246  and  _247
REMARK  103  A    between atoms: _246  and  _249
REMARK  104  A    between atoms: _249  and  _250
REMARK  105  A    between atoms: _253  and  _255
REMARK  106  A    between atoms: _255  and  _256
REMARK  107  A    between atoms: _255  and  _258
REMARK  108  A    between atoms: _258  and  _259
REMARK  109  A    between atoms: _259  and  _260
REMARK  110  A    between atoms: _263  and  _265
REMARK  111  A    between atoms: _265  and  _266
REMARK  112  A    between atoms: _265  and  _268
REMARK  113  A    between atoms: _268  and  _269
REMARK  114  A    between atoms: _269  and  _270
REMARK  115  A    between atoms: _270  and  _271
REMARK  116  A    between atoms: _281  and  _282
REMARK  117  A    between atoms: _287  and  _289
REMARK  118  A    between atoms: _289  and  _290
REMARK  119  A    between atoms: _289  and  _292
REMARK  120  A    between atoms: _292  and  _293
REMARK  121  A    between atoms: _293  and  _294
REMARK  122  A    between atoms: _297  and  _299
REMARK  123  A    between atoms: _299  and  _300
REMARK  124  A    between atoms: _299  and  _302
REMARK  125  A    between atoms: _305  and  _307
REMARK  126  A    between atoms: _307  and  _308
REMARK  127  A    between atoms: _307  and  _310
REMARK  128  A    between atoms: _310  and  _311
REMARK  129  A    between atoms: _311  and  _312
REMARK  130  A    between atoms: _317  and  _319
REMARK  131  A    between atoms: _319  and  _320
REMARK  132  A    between atoms: _319  and  _322
REMARK  133  A    between atoms: _322  and  _323
REMARK  134  A    between atoms: _326  and  _328
REMARK  135  A    between atoms: _328  and  _329
REMARK  136  A    between atoms: _328  and  _331
REMARK  137  A    between atoms: _331  and  _332
REMARK  138  A    between atoms: _338  and  _340
REMARK  139  A    between atoms: _340  and  _341
REMARK  140  A    between atoms: _340  and  _343
REMARK  141  A    between atoms: _343  and  _344
REMARK  142  A    between atoms: _347  and  _349
REMARK  143  A    between atoms: _349  and  _350
REMARK  144  A    between atoms: _349  and  _352
REMARK  145  A    between atoms: _352  and  _353
REMARK  146  A    between atoms: _353  and  _354
REMARK  147  A    between atoms: _354  and  _355
REMARK  148  A    between atoms: _355  and  _356
REMARK  149  A    between atoms: _360  and  _362
REMARK  150  A    between atoms: _362  and  _363
REMARK  151  A    between atoms: _362  and  _365
REMARK  152  A    between atoms: _365  and  _366
REMARK  153  A    between atoms: _369  and  _371
REMARK  154  A    between atoms: _371  and  _372
REMARK  155  A    between atoms: _371  and  _374
REMARK  156  A    between atoms: _374  and  _375
REMARK  157  A    between atoms: _375  and  _376
REMARK  158  A    between atoms: _379  and  _381
REMARK  159  A    between atoms: _381  and  _382
REMARK  160  A    between atoms: _381  and  _384
REMARK  161  A    between atoms: _384  and  _385
REMARK  162  A    between atoms: _390  and  _392
REMARK  163  A    between atoms: _392  and  _393
REMARK  164  A    between atoms: _392  and  _395
REMARK  165  A    between atoms: _395  and  _396
REMARK  166  A    between atoms: _399  and  _401
REMARK  167  A    between atoms: _401  and  _402
REMARK  168  A    between atoms: _401  and  _404
REMARK  169  A    between atoms: _404  and  _405
REMARK  170  A    between atoms: _408  and  _410
REMARK  171  A    between atoms: _410  and  _411
REMARK  172  A    between atoms: _410  and  _413
REMARK  173  A    between atoms: _413  and  _414
REMARK  174  A    between atoms: _417  and  _419
REMARK  175  A    between atoms: _419  and  _420
REMARK  176  A    between atoms: _419  and  _422
REMARK  177  A    between atoms: _422  and  _423
REMARK  178  A    between atoms: _423  and  _424
REMARK  179  A    between atoms: _424  and  _425
REMARK  180  A    between atoms: _425  and  _426
REMARK  181  A    between atoms: _430  and  _432
REMARK  182  A    between atoms: _432  and  _433
REMARK  183  A    between atoms: _432  and  _435
REMARK  184  A    between atoms: _435  and  _436
REMARK  185  A    between atoms: _439  and  _441
REMARK  186  A    between atoms: _441  and  _442
REMARK  187  A    between atoms: _441  and  _444
REMARK  188  A    between atoms: _444  and  _445
REMARK  189  A    between atoms: _448  and  _450
REMARK  190  A    between atoms: _450  and  _451
REMARK  191  A    between atoms: _450  and  _453
REMARK  192  A    between atoms: _453  and  _454
REMARK  193  A    between atoms: _457  and  _459
REMARK  194  A    between atoms: _459  and  _460
REMARK  195  A    between atoms: _459  and  _462
REMARK  196  A    between atoms: _462  and  _463
REMARK  197  A    between atoms: _469  and  _471
REMARK  198  A    between atoms: _471  and  _472
REMARK  199  A    between atoms: _474  and  _476
REMARK  200  A    between atoms: _476  and  _477
REMARK  201  A    between atoms: _476  and  _479
REMARK  202  A    between atoms: _479  and  _480
REMARK                            x       y       z     vdW  Elec       q    Type
REMARK                         _______ _______ _______ _____ _____    ______ ____
ROOT
ATOM      1  O   HOH     1     -15.664 -39.561   8.210  0.00  0.00    +0.000 OA
ENDROOT
TORSDOF 0
REMARK  Name = ../refined-set-2016/1xws/1xws_pocket.pdb
REMARK  202 active torsions:
REMARK  status: ('A' for Active; 'I' for Inactive)
REMARK    1  A    between atoms: _1  and  _3
REMARK    2  A    between atoms: _3  and  _4
REMARK    3  A    between atoms: _3  and  _6
REMARK    4  A    between atoms: _6  and  _7
REMARK    5  A    between atoms: _10  and  _12
REMARK    6  A    between atoms: _12  and  _13
REMARK    7  A    between atoms: _12  and  _15
REMARK    8  A    between atoms: _15  and  _16
REMARK    9  A    between atoms: _19  and  _21
REMARK   10  A    between atoms: _21  and  _22
REMARK   11  A    between atoms: _24  and  _26
REMARK   12  A    between atoms: _26  and  _27
REMARK   13  A    between atoms: _26  and  _29
REMARK   14  A    between atoms: _29  and  _30
REMARK   15  A    between atoms: _32  and  _34
REMARK   16  A    between atoms: _34  and  _35
REMARK   17  A    between atoms: _37  and  _39
REMARK   18  A    between atoms: _39  and  _40
REMARK   19  A    between atoms: _42  and  _44
REMARK   20  A    between atoms: _44  and  _45
REMARK   21  A    between atoms: _44  and  _47
REMARK   22  A    between atoms: _47  and  _48
REMARK   23  A    between atoms: _54  and  _56
REMARK   24  A    between atoms: _56  and  _57
REMARK   25  A    between atoms: _59  and  _61
REMARK   26  A    between atoms: _61  and  _62
REMARK   27  A    between atoms: _61  and  _64
REMARK   28  A    between atoms: _64  and  _65
REMARK   29  A    between atoms: _67  and  _69
REMARK   30  A    between atoms: _69  and  _70
REMARK   31  A    between atoms: _69  and  _72
REMARK   32  A    between atoms: _75  and  _77
REMARK   33  A    between atoms: _77  and  _78
REMARK   34  A    between atoms: _77  and  _80
REMARK   35  A    between atoms: _80  and  _81
REMARK   36  A    between atoms: _86  and  _87
REMARK   37  A    between atoms: _89  and  _91
REMARK   38  A    between atoms: _91  and  _92
REMARK   39  A    between atoms: _91  and  _94
REMARK   40  A    between atoms: _94  and  _95
REMARK   41  A    between atoms: _97  and  _99
REMARK   42  A    between atoms: _99  and  _100
REMARK   43  A    between atoms: _103  and  _104
REMARK   44  A    between atoms: _109  and  _111
REMARK   45  A    between atoms: _111  and  _112
REMARK   46  A    between atoms: _111  and  _114
REMARK   47  A    between atoms: _117  and  _119
REMARK   48  A    between atoms: _119  and  _120
REMARK   49  A    between atoms: _123  and  _125
REMARK   50  A    between atoms: _125  and  _126
REMARK   51  A    between atoms: _125  and  _128
REMARK   52  A    between atoms: _128  and  _129
REMARK   53  A    between atoms: _132  and  _134
REMARK   54  A    between atoms: _134  and  _135
REMARK   55  A    between atoms: _134  and  _137
REMARK   56  A    between atoms: _137  and  _138
REMARK   57  A    between atoms: _138  and  _139
REMARK   58  A    between atoms: _139  and  _140
REMARK   59  A    between atoms: _140  and  _141
REMARK   60  A    between atoms: _145  and  _147
REMARK   61  A    between atoms: _147  and  _148
REMARK   62  A    between atoms: _147  and  _150
REMARK   63  A    between atoms: _150  and  _151
REMARK   64  A    between atoms: _156  and  _158
REMARK   65  A    between atoms: _158  and  _159
REMARK   66  A    between atoms: _158  and  _161
REMARK   67  A    between atoms: _164  and  _166
REMARK   68  A    between atoms: _166  and  _167
REMARK   69  A    between atoms: _166  and  _169
REMARK   70  A    between atoms: _169  and  _170
REMARK   71  A    between atoms: _170  and  _171
REMARK   72  A    between atoms: _174  and  _176
REMARK   73  A    between atoms: _176  and  _177
REMARK   74  A    between atoms: _176  and  _179
REMARK   75  A    between atoms: _179  and  _180
REMARK   76  A    between atoms: _183  and  _185
REMARK   77  A    between atoms: _185  and  _186
REMARK   78  A    between atoms: _185  and  _188
REMARK   79  A    between atoms: _191  and  _193
REMARK   80  A    between atoms: _193  and  _194
REMARK   81  A    between atoms: _193  and  _196
REMARK   82  A    between atoms: _196  and  _197
REMARK   83  A    between atoms: _200  and  _202
REMARK   84  A    between atoms: _202  and  _203
REMARK   85  A    between atoms: _202  and  _205
REMARK   86  A    between atoms: _205  and  _206
REMARK   87  A    between atoms: _206  and  _207
REMARK   88  A    between atoms: _207  and  _208
REMARK   89  A    between atoms: _217  and  _219
REMARK   90  A    between atoms: _219  and  _220
REMARK   91  A    between atoms: _219  and  _222
REMARK   92  A    between atoms: _222  and  _223
REMARK   93  A    between atoms: _226  and  _228
REMARK   94  A    between atoms: _228  and  _229
REMARK   95  A    between atoms: _228  and  _231
REMARK   96  A    between atoms: _231  and  _232
REMARK   97  A    between atoms: _235  and  _237
REMARK   98  A    between atoms: _237  and  _238
REMARK   99  A    between atoms: _237  and  _240
REMARK  100  A    between atoms: _240  and  _241
REMARK  101  A    between atoms: _244  and  _246
REMARK  102  A    between atoms: _246  and  _247
REMARK  103  A    between atoms: _246  and  _249
REMARK  104  A    between atoms: _249  and  _250
REMARK  105  A    between atoms: _253  and  _255
REMARK  106  A    between atoms: _255  and  _256
REMARK  107  A    between atoms: _255  and  _258
REMARK  108  A    between atoms: _258  and  _259
REMARK  109  A    between atoms: _259  and  _260
REMARK  110  A    between atoms: _263  and  _265
REMARK  111  A    between atoms: _265  and  _266
REMARK  112  A    between atoms: _265  and  _268
REMARK  113  A    between atoms: _268  and  _269
REMARK  114  A    between atoms: _269  and  _270
REMARK  115  A    between atoms: _270  and  _271
REMARK  116  A    between atoms: _281  and  _282
REMARK  117  A    between atoms: _287  and  _289
REMARK  118  A    between atoms: _289  and  _290
REMARK  119  A    between atoms: _289  and  _292
REMARK  120  A    between atoms: _292  and  _293
REMARK  121  A    between atoms: _293  and  _294
REMARK  122  A    between atoms: _297  and  _299
REMARK  123  A    between atoms: _299  and  _300
REMARK  124  A    between atoms: _299  and  _302
REMARK  125  A    between atoms: _305  and  _307
REMARK  126  A    between atoms: _307  and  _308
REMARK  127  A    between atoms: _307  and  _310
REMARK  128  A    between atoms: _310  and  _311
REMARK  129  A    between atoms: _311  and  _312
REMARK  130  A    between atoms: _317  and  _319
REMARK  131  A    between atoms: _319  and  _320
REMARK  132  A    between atoms: _319  and  _322
REMARK  133  A    between atoms: _322  and  _323
REMARK  134  A    between atoms: _326  and  _328
REMARK  135  A    between atoms: _328  and  _329
REMARK  136  A    between atoms: _328  and  _331
REMARK  137  A    between atoms: _331  and  _332
REMARK  138  A    between atoms: _338  and  _340
REMARK  139  A    between atoms: _340  and  _341
REMARK  140  A    between atoms: _340  and  _343
REMARK  141  A    between atoms: _343  and  _344
REMARK  142  A    between atoms: _347  and  _349
REMARK  143  A    between atoms: _349  and  _350
REMARK  144  A    between atoms: _349  and  _352
REMARK  145  A    between atoms: _352  and  _353
REMARK  146  A    between atoms: _353  and  _354
REMARK  147  A    between atoms: _354  and  _355
REMARK  148  A    between atoms: _355  and  _356
REMARK  149  A    between atoms: _360  and  _362
REMARK  150  A    between atoms: _362  and  _363
REMARK  151  A    between atoms: _362  and  _365
REMARK  152  A    between atoms: _365  and  _366
REMARK  153  A    between atoms: _369  and  _371
REMARK  154  A    between atoms: _371  and  _372
REMARK  155  A    between atoms: _371  and  _374
REMARK  156  A    between atoms: _374  and  _375
REMARK  157  A    between atoms: _375  and  _376
REMARK  158  A    between atoms: _379  and  _381
REMARK  159  A    between atoms: _381  and  _382
REMARK  160  A    between atoms: _381  and  _384
REMARK  161  A    between atoms: _384  and  _385
REMARK  162  A    between atoms: _390  and  _392
REMARK  163  A    between atoms: _392  and  _393
REMARK  164  A    between atoms: _392  and  _395
REMARK  165  A    between atoms: _395  and  _396
REMARK  166  A    between atoms: _399  and  _401
REMARK  167  A    between atoms: _401  and  _402
REMARK  168  A    between atoms: _401  and  _404
REMARK  169  A    between atoms: _404  and  _405
REMARK  170  A    between atoms: _408  and  _410
REMARK  171  A    between atoms: _410  and  _411
REMARK  172  A    between atoms: _410  and  _413
REMARK  173  A    between atoms: _413  and  _414
REMARK  174  A    between atoms: _417  and  _419
REMARK  175  A    between atoms: _419  and  _420
REMARK  176  A    between atoms: _419  and  _422
REMARK  177  A    between atoms: _422  and  _423
REMARK  178  A    between atoms: _423  and  _424
REMARK  179  A    between atoms: _424  and  _425
REMARK  180  A    between atoms: _425  and  _426
REMARK  181  A    between atoms: _430  and  _432
REMARK  182  A    between atoms: _432  and  _433
REMARK  183  A    between atoms: _432  and  _435
REMARK  184  A    between atoms: _435  and  _436
REMARK  185  A    between atoms: _439  and  _441
REMARK  186  A    between atoms: _441  and  _442
REMARK  187  A    between atoms: _441  and  _444
REMARK  188  A    between atoms: _444  and  _445
REMARK  189  A    between atoms: _448  and  _450
REMARK  190  A    between atoms: _450  and  _451
REMARK  191  A    between atoms: _450  and  _453
REMARK  192  A    between atoms: _453  and  _454
REMARK  193  A    between atoms: _457  and  _459
REMARK  194  A    between atoms: _459  and  _460
REMARK  195  A    between atoms: _459  and  _462
REMARK  196  A    between atoms: _462  and  _463
REMARK  197  A    between atoms: _469  and  _471
REMARK  198  A    between atoms: _471  and  _472
REMARK  199  A    between atoms: _474  and  _476
REMARK  200  A    between atoms: _476  and  _477
REMARK  201  A    between atoms: _476  and  _479
REMARK  202  A    between atoms: _479  and  _480
REMARK                            x       y       z     vdW  Elec       q    Type
REMARK                         _______ _______ _______ _____ _____    ______ ____
ROOT
ATOM      1  O   HOH     1     -13.280 -30.734  -3.112  0.00  0.00    +0.000 OA
ENDROOT
TORSDOF 0
REMARK  Name = ../refined-set-2016/1xws/1xws_pocket.pdb
REMARK  202 active torsions:
REMARK  status: ('A' for Active; 'I' for Inactive)
REMARK    1  A    between atoms: _1  and  _3
REMARK    2  A    between atoms: _3  and  _4
REMARK    3  A    between atoms: _3  and  _6
REMARK    4  A    between atoms: _6  and  _7
REMARK    5  A    between atoms: _10  and  _12
REMARK    6  A    between atoms: _12  and  _13
REMARK    7  A    between atoms: _12  and  _15
REMARK    8  A    between atoms: _15  and  _16
REMARK    9  A    between atoms: _19  and  _21
REMARK   10  A    between atoms: _21  and  _22
REMARK   11  A    between atoms: _24  and  _26
REMARK   12  A    between atoms: _26  and  _27
REMARK   13  A    between atoms: _26  and  _29
REMARK   14  A    between atoms: _29  and  _30
REMARK   15  A    between atoms: _32  and  _34
REMARK   16  A    between atoms: _34  and  _35
REMARK   17  A    between atoms: _37  and  _39
REMARK   18  A    between atoms: _39  and  _40
REMARK   19  A    between atoms: _42  and  _44
REMARK   20  A    between atoms: _44  and  _45
REMARK   21  A    between atoms: _44  and  _47
REMARK   22  A    between atoms: _47  and  _48
REMARK   23  A    between atoms: _54  and  _56
REMARK   24  A    between atoms: _56  and  _57
REMARK   25  A    between atoms: _59  and  _61
REMARK   26  A    between atoms: _61  and  _62
REMARK   27  A    between atoms: _61  and  _64
REMARK   28  A    between atoms: _64  and  _65
REMARK   29  A    between atoms: _67  and  _69
REMARK   30  A    between atoms: _69  and  _70
REMARK   31  A    between atoms: _69  and  _72
REMARK   32  A    between atoms: _75  and  _77
REMARK   33  A    between atoms: _77  and  _78
REMARK   34  A    between atoms: _77  and  _80
REMARK   35  A    between atoms: _80  and  _81
REMARK   36  A    between atoms: _86  and  _87
REMARK   37  A    between atoms: _89  and  _91
REMARK   38  A    between atoms: _91  and  _92
REMARK   39  A    between atoms: _91  and  _94
REMARK   40  A    between atoms: _94  and  _95
REMARK   41  A    between atoms: _97  and  _99
REMARK   42  A    between atoms: _99  and  _100
REMARK   43  A    between atoms: _103  and  _104
REMARK   44  A    between atoms: _109  and  _111
REMARK   45  A    between atoms: _111  and  _112
REMARK   46  A    between atoms: _111  and  _114
REMARK   47  A    between atoms: _117  and  _119
REMARK   48  A    between atoms: _119  and  _120
REMARK   49  A    between atoms: _123  and  _125
REMARK   50  A    between atoms: _125  and  _126
REMARK   51  A    between atoms: _125  and  _128
REMARK   52  A    between atoms: _128  and  _129
REMARK   53  A    between atoms: _132  and  _134
REMARK   54  A    between atoms: _134  and  _135
REMARK   55  A    between atoms: _134  and  _137
REMARK   56  A    between atoms: _137  and  _138
REMARK   57  A    between atoms: _138  and  _139
REMARK   58  A    between atoms: _139  and  _140
REMARK   59  A    between atoms: _140  and  _141
REMARK   60  A    between atoms: _145  and  _147
REMARK   61  A    between atoms: _147  and  _148
REMARK   62  A    between atoms: _147  and  _150
REMARK   63  A    between atoms: _150  and  _151
REMARK   64  A    between atoms: _156  and  _158
REMARK   65  A    between atoms: _158  and  _159
REMARK   66  A    between atoms: _158  and  _161
REMARK   67  A    between atoms: _164  and  _166
REMARK   68  A    between atoms: _166  and  _167
REMARK   69  A    between atoms: _166  and  _169
REMARK   70  A    between atoms: _169  and  _170
REMARK   71  A    between atoms: _170  and  _171
REMARK   72  A    between atoms: _174  and  _176
REMARK   73  A    between atoms: _176  and  _177
REMARK   74  A    between atoms: _176  and  _179
REMARK   75  A    between atoms: _179  and  _180
REMARK   76  A    between atoms: _183  and  _185
REMARK   77  A    between atoms: _185  and  _186
REMARK   78  A    between atoms: _185  and  _188
REMARK   79  A    between atoms: _191  and  _193
REMARK   80  A    between atoms: _193  and  _194
REMARK   81  A    between atoms: _193  and  _196
REMARK   82  A    between atoms: _196  and  _197
REMARK   83  A    between atoms: _200  and  _202
REMARK   84  A    between atoms: _202  and  _203
REMARK   85  A    between atoms: _202  and  _205
REMARK   86  A    between atoms: _205  and  _206
REMARK   87  A    between atoms: _206  and  _207
REMARK   88  A    between atoms: _207  and  _208
REMARK   89  A    between atoms: _217  and  _219
REMARK   90  A    between atoms: _219  and  _220
REMARK   91  A    between atoms: _219  and  _222
REMARK   92  A    between atoms: _222  and  _223
REMARK   93  A    between atoms: _226  and  _228
REMARK   94  A    between atoms: _228  and  _229
REMARK   95  A    between atoms: _228  and  _231
REMARK   96  A    between atoms: _231  and  _232
REMARK   97  A    between atoms: _235  and  _237
REMARK   98  A    between atoms: _237  and  _238
REMARK   99  A    between atoms: _237  and  _240
REMARK  100  A    between atoms: _240  and  _241
REMARK  101  A    between atoms: _244  and  _246
REMARK  102  A    between atoms: _246  and  _247
REMARK  103  A    between atoms: _246  and  _249
REMARK  104  A    between atoms: _249  and  _250
REMARK  105  A    between atoms: _253  and  _255
REMARK  106  A    between atoms: _255  and  _256
REMARK  107  A    between atoms: _255  and  _258
REMARK  108  A    between atoms: _258  and  _259
REMARK  109  A    between atoms: _259  and  _260
REMARK  110  A    between atoms: _263  and  _265
REMARK  111  A    between atoms: _265  and  _266
REMARK  112  A    between atoms: _265  and  _268
REMARK  113  A    between atoms: _268  and  _269
REMARK  114  A    between atoms: _269  and  _270
REMARK  115  A    between atoms: _270  and  _271
REMARK  116  A    between atoms: _281  and  _282
REMARK  117  A    between atoms: _287  and  _289
REMARK  118  A    between atoms: _289  and  _290
REMARK  119  A    between atoms: _289  and  _292
REMARK  120  A    between atoms: _292  and  _293
REMARK  121  A    between atoms: _293  and  _294
REMARK  122  A    between atoms: _297  and  _299
REMARK  123  A    between atoms: _299  and  _300
REMARK  124  A    between atoms: _299  and  _302
REMARK  125  A    between atoms: _305  and  _307
REMARK  126  A    between atoms: _307  and  _308
REMARK  127  A    between atoms: _307  and  _310
REMARK  128  A    between atoms: _310  and  _311
REMARK  129  A    between atoms: _311  and  _312
REMARK  130  A    between atoms: _317  and  _319
REMARK  131  A    between atoms: _319  and  _320
REMARK  132  A    between atoms: _319  and  _322
REMARK  133  A    between atoms: _322  and  _323
REMARK  134  A    between atoms: _326  and  _328
REMARK  135  A    between atoms: _328  and  _329
REMARK  136  A    between atoms: _328  and  _331
REMARK  137  A    between atoms: _331  and  _332
REMARK  138  A    between atoms: _338  and  _340
REMARK  139  A    between atoms: _340  and  _341
REMARK  140  A    between atoms: _340  and  _343
REMARK  141  A    between atoms: _343  and  _344
REMARK  142  A    between atoms: _347  and  _349
REMARK  143  A    between atoms: _349  and  _350
REMARK  144  A    between atoms: _349  and  _352
REMARK  145  A    between atoms: _352  and  _353
REMARK  146  A    between atoms: _353  and  _354
REMARK  147  A    between atoms: _354  and  _355
REMARK  148  A    between atoms: _355  and  _356
REMARK  149  A    between atoms: _360  and  _362
REMARK  150  A    between atoms: _362  and  _363
REMARK  151  A    between atoms: _362  and  _365
REMARK  152  A    between atoms: _365  and  _366
REMARK  153  A    between atoms: _369  and  _371
REMARK  154  A    between atoms: _371  and  _372
REMARK  155  A    between atoms: _371  and  _374
REMARK  156  A    between atoms: _374  and  _375
REMARK  157  A    between atoms: _375  and  _376
REMARK  158  A    between atoms: _379  and  _381
REMARK  159  A    between atoms: _381  and  _382
REMARK  160  A    between atoms: _381  and  _384
REMARK  161  A    between atoms: _384  and  _385
REMARK  162  A    between atoms: _390  and  _392
REMARK  163  A    between atoms: _392  and  _393
REMARK  164  A    between atoms: _392  and  _395
REMARK  165  A    between atoms: _395  and  _396
REMARK  166  A    between atoms: _399  and  _401
REMARK  167  A    between atoms: _401  and  _402
REMARK  168  A    between atoms: _401  and  _404
REMARK  169  A    between atoms: _404  and  _405
REMARK  170  A    between atoms: _408  and  _410
REMARK  171  A    between atoms: _410  and  _411
REMARK  172  A    between atoms: _410  and  _413
REMARK  173  A    between atoms: _413  and  _414
REMARK  174  A    between atoms: _417  and  _419
REMARK  175  A    between atoms: _419  and  _420
REMARK  176  A    between atoms: _419  and  _422
REMARK  177  A    between atoms: _422  and  _423
REMARK  178  A    between atoms: _423  and  _424
REMARK  179  A    between atoms: _424  and  _425
REMARK  180  A    between atoms: _425  and  _426
REMARK  181  A    between atoms: _430  and  _432
REMARK  182  A    between atoms: _432  and  _433
REMARK  183  A    between atoms: _432  and  _435
REMARK  184  A    between atoms: _435  and  _436
REMARK  185  A    between atoms: _439  and  _441
REMARK  186  A    between atoms: _441  and  _442
REMARK  187  A    between atoms: _441  and  _444
REMARK  188  A    between atoms: _444  and  _445
REMARK  189  A    between atoms: _448  and  _450
REMARK  190  A    between atoms: _450  and  _451
REMARK  191  A    between atoms: _450  and  _453
REMARK  192  A    between atoms: _453  and  _454
REMARK  193  A    between atoms: _457  and  _459
REMARK  194  A    between atoms: _459  and  _460
REMARK  195  A    between atoms: _459  and  _462
REMARK  196  A    between atoms: _462  and  _463
REMARK  197  A    between atoms: _469  and  _471
REMARK  198  A    between atoms: _471  and  _472
REMARK  199  A    between atoms: _474  and  _476
REMARK  200  A    between atoms: _476  and  _477
REMARK  201  A    between atoms: _476  and  _479
REMARK  202  A    between atoms: _479  and  _480
REMARK                            x       y       z     vdW  Elec       q    Type
REMARK                         _______ _______ _______ _____ _____    ______ ____
ROOT
ATOM      1  O   HOH     1      -8.930 -33.247  -1.300  0.00  0.00    +0.000 OA
ENDROOT
TORSDOF 0
REMARK  Name = ../refined-set-2016/1xws/1xws_pocket.pdb
REMARK  202 active torsions:
REMARK  status: ('A' for Active; 'I' for Inactive)
REMARK    1  A    between atoms: _1  and  _3
REMARK    2  A    between atoms: _3  and  _4
REMARK    3  A    between atoms: _3  and  _6
REMARK    4  A    between atoms: _6  and  _7
REMARK    5  A    between atoms: _10  and  _12
REMARK    6  A    between atoms: _12  and  _13
REMARK    7  A    between atoms: _12  and  _15
REMARK    8  A    between atoms: _15  and  _16
REMARK    9  A    between atoms: _19  and  _21
REMARK   10  A    between atoms: _21  and  _22
REMARK   11  A    between atoms: _24  and  _26
REMARK   12  A    between atoms: _26  and  _27
REMARK   13  A    between atoms: _26  and  _29
REMARK   14  A    between atoms: _29  and  _30
REMARK   15  A    between atoms: _32  and  _34
REMARK   16  A    between atoms: _34  and  _35
REMARK   17  A    between atoms: _37  and  _39
REMARK   18  A    between atoms: _39  and  _40
REMARK   19  A    between atoms: _42  and  _44
REMARK   20  A    between atoms: _44  and  _45
REMARK   21  A    between atoms: _44  and  _47
REMARK   22  A    between atoms: _47  and  _48
REMARK   23  A    between atoms: _54  and  _56
REMARK   24  A    between atoms: _56  and  _57
REMARK   25  A    between atoms: _59  and  _61
REMARK   26  A    between atoms: _61  and  _62
REMARK   27  A    between atoms: _61  and  _64
REMARK   28  A    between atoms: _64  and  _65
REMARK   29  A    between atoms: _67  and  _69
REMARK   30  A    between atoms: _69  and  _70
REMARK   31  A    between atoms: _69  and  _72
REMARK   32  A    between atoms: _75  and  _77
REMARK   33  A    between atoms: _77  and  _78
REMARK   34  A    between atoms: _77  and  _80
REMARK   35  A    between atoms: _80  and  _81
REMARK   36  A    between atoms: _86  and  _87
REMARK   37  A    between atoms: _89  and  _91
REMARK   38  A    between atoms: _91  and  _92
REMARK   39  A    between atoms: _91  and  _94
REMARK   40  A    between atoms: _94  and  _95
REMARK   41  A    between atoms: _97  and  _99
REMARK   42  A    between atoms: _99  and  _100
REMARK   43  A    between atoms: _103  and  _104
REMARK   44  A    between atoms: _109  and  _111
REMARK   45  A    between atoms: _111  and  _112
REMARK   46  A    between atoms: _111  and  _114
REMARK   47  A    between atoms: _117  and  _119
REMARK   48  A    between atoms: _119  and  _120
REMARK   49  A    between atoms: _123  and  _125
REMARK   50  A    between atoms: _125  and  _126
REMARK   51  A    between atoms: _125  and  _128
REMARK   52  A    between atoms: _128  and  _129
REMARK   53  A    between atoms: _132  and  _134
REMARK   54  A    between atoms: _134  and  _135
REMARK   55  A    between atoms: _134  and  _137
REMARK   56  A    between atoms: _137  and  _138
REMARK   57  A    between atoms: _138  and  _139
REMARK   58  A    between atoms: _139  and  _140
REMARK   59  A    between atoms: _140  and  _141
REMARK   60  A    between atoms: _145  and  _147
REMARK   61  A    between atoms: _147  and  _148
REMARK   62  A    between atoms: _147  and  _150
REMARK   63  A    between atoms: _150  and  _151
REMARK   64  A    between atoms: _156  and  _158
REMARK   65  A    between atoms: _158  and  _159
REMARK   66  A    between atoms: _158  and  _161
REMARK   67  A    between atoms: _164  and  _166
REMARK   68  A    between atoms: _166  and  _167
REMARK   69  A    between atoms: _166  and  _169
REMARK   70  A    between atoms: _169  and  _170
REMARK   71  A    between atoms: _170  and  _171
REMARK   72  A    between atoms: _174  and  _176
REMARK   73  A    between atoms: _176  and  _177
REMARK   74  A    between atoms: _176  and  _179
REMARK   75  A    between atoms: _179  and  _180
REMARK   76  A    between atoms: _183  and  _185
REMARK   77  A    between atoms: _185  and  _186
REMARK   78  A    between atoms: _185  and  _188
REMARK   79  A    between atoms: _191  and  _193
REMARK   80  A    between atoms: _193  and  _194
REMARK   81  A    between atoms: _193  and  _196
REMARK   82  A    between atoms: _196  and  _197
REMARK   83  A    between atoms: _200  and  _202
REMARK   84  A    between atoms: _202  and  _203
REMARK   85  A    between atoms: _202  and  _205
REMARK   86  A    between atoms: _205  and  _206
REMARK   87  A    between atoms: _206  and  _207
REMARK   88  A    between atoms: _207  and  _208
REMARK   89  A    between atoms: _217  and  _219
REMARK   90  A    between atoms: _219  and  _220
REMARK   91  A    between atoms: _219  and  _222
REMARK   92  A    between atoms: _222  and  _223
REMARK   93  A    between atoms: _226  and  _228
REMARK   94  A    between atoms: _228  and  _229
REMARK   95  A    between atoms: _228  and  _231
REMARK   96  A    between atoms: _231  and  _232
REMARK   97  A    between atoms: _235  and  _237
REMARK   98  A    between atoms: _237  and  _238
REMARK   99  A    between atoms: _237  and  _240
REMARK  100  A    between atoms: _240  and  _241
REMARK  101  A    between atoms: _244  and  _246
REMARK  102  A    between atoms: _246  and  _247
REMARK  103  A    between atoms: _246  and  _249
REMARK  104  A    between atoms: _249  and  _250
REMARK  105  A    between atoms: _253  and  _255
REMARK  106  A    between atoms: _255  and  _256
REMARK  107  A    between atoms: _255  and  _258
REMARK  108  A    between atoms: _258  and  _259
REMARK  109  A    between atoms: _259  and  _260
REMARK  110  A    between atoms: _263  and  _265
REMARK  111  A    between atoms: _265  and  _266
REMARK  112  A    between atoms: _265  and  _268
REMARK  113  A    between atoms: _268  and  _269
REMARK  114  A    between atoms: _269  and  _270
REMARK  115  A    between atoms: _270  and  _271
REMARK  116  A    between atoms: _281  and  _282
REMARK  117  A    between atoms: _287  and  _289
REMARK  118  A    between atoms: _289  and  _290
REMARK  119  A    between atoms: _289  and  _292
REMARK  120  A    between atoms: _292  and  _293
REMARK  121  A    between atoms: _293  and  _294
REMARK  122  A    between atoms: _297  and  _299
REMARK  123  A    between atoms: _299  and  _300
REMARK  124  A    between atoms: _299  and  _302
REMARK  125  A    between atoms: _305  and  _307
REMARK  126  A    between atoms: _307  and  _308
REMARK  127  A    between atoms: _307  and  _310
REMARK  128  A    between atoms: _310  and  _311
REMARK  129  A    between atoms: _311  and  _312
REMARK  130  A    between atoms: _317  and  _319
REMARK  131  A    between atoms: _319  and  _320
REMARK  132  A    between atoms: _319  and  _322
REMARK  133  A    between atoms: _322  and  _323
REMARK  134  A    between atoms: _326  and  _328
REMARK  135  A    between atoms: _328  and  _329
REMARK  136  A    between atoms: _328  and  _331
REMARK  137  A    between atoms: _331  and  _332
REMARK  138  A    between atoms: _338  and  _340
REMARK  139  A    between atoms: _340  and  _341
REMARK  140  A    between atoms: _340  and  _343
REMARK  141  A    between atoms: _343  and  _344
REMARK  142  A    between atoms: _347  and  _349
REMARK  143  A    between atoms: _349  and  _350
REMARK  144  A    between atoms: _349  and  _352
REMARK  145  A    between atoms: _352  and  _353
REMARK  146  A    between atoms: _353  and  _354
REMARK  147  A    between atoms: _354  and  _355
REMARK  148  A    between atoms: _355  and  _356
REMARK  149  A    between atoms: _360  and  _362
REMARK  150  A    between atoms: _362  and  _363
REMARK  151  A    between atoms: _362  and  _365
REMARK  152  A    between atoms: _365  and  _366
REMARK  153  A    between atoms: _369  and  _371
REMARK  154  A    between atoms: _371  and  _372
REMARK  155  A    between atoms: _371  and  _374
REMARK  156  A    between atoms: _374  and  _375
REMARK  157  A    between atoms: _375  and  _376
REMARK  158  A    between atoms: _379  and  _381
REMARK  159  A    between atoms: _381  and  _382
REMARK  160  A    between atoms: _381  and  _384
REMARK  161  A    between atoms: _384  and  _385
REMARK  162  A    between atoms: _390  and  _392
REMARK  163  A    between atoms: _392  and  _393
REMARK  164  A    between atoms: _392  and  _395
REMARK  165  A    between atoms: _395  and  _396
REMARK  166  A    between atoms: _399  and  _401
REMARK  167  A    between atoms: _401  and  _402
REMARK  168  A    between atoms: _401  and  _404
REMARK  169  A    between atoms: _404  and  _405
REMARK  170  A    between atoms: _408  and  _410
REMARK  171  A    between atoms: _410  and  _411
REMARK  172  A    between atoms: _410  and  _413
REMARK  173  A    between atoms: _413  and  _414
REMARK  174  A    between atoms: _417  and  _419
REMARK  175  A    between atoms: _419  and  _420
REMARK  176  A    between atoms: _419  and  _422
REMARK  177  A    between atoms: _422  and  _423
REMARK  178  A    between atoms: _423  and  _424
REMARK  179  A    between atoms: _424  and  _425
REMARK  180  A    between atoms: _425  and  _426
REMARK  181  A    between atoms: _430  and  _432
REMARK  182  A    between atoms: _432  and  _433
REMARK  183  A    between atoms: _432  and  _435
REMARK  184  A    between atoms: _435  and  _436
REMARK  185  A    between atoms: _439  and  _441
REMARK  186  A    between atoms: _441  and  _442
REMARK  187  A    between atoms: _441  and  _444
REMARK  188  A    between atoms: _444  and  _445
REMARK  189  A    between atoms: _448  and  _450
REMARK  190  A    between atoms: _450  and  _451
REMARK  191  A    between atoms: _450  and  _453
REMARK  192  A    between atoms: _453  and  _454
REMARK  193  A    between atoms: _457  and  _459
REMARK  194  A    between atoms: _459  and  _460
REMARK  195  A    between atoms: _459  and  _462
REMARK  196  A    between atoms: _462  and  _463
REMARK  197  A    between atoms: _469  and  _471
REMARK  198  A    between atoms: _471  and  _472
REMARK  199  A    between atoms: _474  and  _476
REMARK  200  A    between atoms: _476  and  _477
REMARK  201  A    between atoms: _476  and  _479
REMARK  202  A    between atoms: _479  and  _480
REMARK                            x       y       z     vdW  Elec       q    Type
REMARK                         _______ _______ _______ _____ _____    ______ ____
ROOT
ATOM      1  O   HOH     1      -8.992 -33.362   3.165  0.00  0.00    +0.000 OA
ENDROOT
TORSDOF 0
REMARK  Name = ../refined-set-2016/1xws/1xws_pocket.pdb
REMARK  202 active torsions:
REMARK  status: ('A' for Active; 'I' for Inactive)
REMARK    1  A    between atoms: _1  and  _3
REMARK    2  A    between atoms: _3  and  _4
REMARK    3  A    between atoms: _3  and  _6
REMARK    4  A    between atoms: _6  and  _7
REMARK    5  A    between atoms: _10  and  _12
REMARK    6  A    between atoms: _12  and  _13
REMARK    7  A    between atoms: _12  and  _15
REMARK    8  A    between atoms: _15  and  _16
REMARK    9  A    between atoms: _19  and  _21
REMARK   10  A    between atoms: _21  and  _22
REMARK   11  A    between atoms: _24  and  _26
REMARK   12  A    between atoms: _26  and  _27
REMARK   13  A    between atoms: _26  and  _29
REMARK   14  A    between atoms: _29  and  _30
REMARK   15  A    between atoms: _32  and  _34
REMARK   16  A    between atoms: _34  and  _35
REMARK   17  A    between atoms: _37  and  _39
REMARK   18  A    between atoms: _39  and  _40
REMARK   19  A    between atoms: _42  and  _44
REMARK   20  A    between atoms: _44  and  _45
REMARK   21  A    between atoms: _44  and  _47
REMARK   22  A    between atoms: _47  and  _48
REMARK   23  A    between atoms: _54  and  _56
REMARK   24  A    between atoms: _56  and  _57
REMARK   25  A    between atoms: _59  and  _61
REMARK   26  A    between atoms: _61  and  _62
REMARK   27  A    between atoms: _61  and  _64
REMARK   28  A    between atoms: _64  and  _65
REMARK   29  A    between atoms: _67  and  _69
REMARK   30  A    between atoms: _69  and  _70
REMARK   31  A    between atoms: _69  and  _72
REMARK   32  A    between atoms: _75  and  _77
REMARK   33  A    between atoms: _77  and  _78
REMARK   34  A    between atoms: _77  and  _80
REMARK   35  A    between atoms: _80  and  _81
REMARK   36  A    between atoms: _86  and  _87
REMARK   37  A    between atoms: _89  and  _91
REMARK   38  A    between atoms: _91  and  _92
REMARK   39  A    between atoms: _91  and  _94
REMARK   40  A    between atoms: _94  and  _95
REMARK   41  A    between atoms: _97  and  _99
REMARK   42  A    between atoms: _99  and  _100
REMARK   43  A    between atoms: _103  and  _104
REMARK   44  A    between atoms: _109  and  _111
REMARK   45  A    between atoms: _111  and  _112
REMARK   46  A    between atoms: _111  and  _114
REMARK   47  A    between atoms: _117  and  _119
REMARK   48  A    between atoms: _119  and  _120
REMARK   49  A    between atoms: _123  and  _125
REMARK   50  A    between atoms: _125  and  _126
REMARK   51  A    between atoms: _125  and  _128
REMARK   52  A    between atoms: _128  and  _129
REMARK   53  A    between atoms: _132  and  _134
REMARK   54  A    between atoms: _134  and  _135
REMARK   55  A    between atoms: _134  and  _137
REMARK   56  A    between atoms: _137  and  _138
REMARK   57  A    between atoms: _138  and  _139
REMARK   58  A    between atoms: _139  and  _140
REMARK   59  A    between atoms: _140  and  _141
REMARK   60  A    between atoms: _145  and  _147
REMARK   61  A    between atoms: _147  and  _148
REMARK   62  A    between atoms: _147  and  _150
REMARK   63  A    between atoms: _150  and  _151
REMARK   64  A    between atoms: _156  and  _158
REMARK   65  A    between atoms: _158  and  _159
REMARK   66  A    between atoms: _158  and  _161
REMARK   67  A    between atoms: _164  and  _166
REMARK   68  A    between atoms: _166  and  _167
REMARK   69  A    between atoms: _166  and  _169
REMARK   70  A    between atoms: _169  and  _170
REMARK   71  A    between atoms: _170  and  _171
REMARK   72  A    between atoms: _174  and  _176
REMARK   73  A    between atoms: _176  and  _177
REMARK   74  A    between atoms: _176  and  _179
REMARK   75  A    between atoms: _179  and  _180
REMARK   76  A    between atoms: _183  and  _185
REMARK   77  A    between atoms: _185  and  _186
REMARK   78  A    between atoms: _185  and  _188
REMARK   79  A    between atoms: _191  and  _193
REMARK   80  A    between atoms: _193  and  _194
REMARK   81  A    between atoms: _193  and  _196
REMARK   82  A    between atoms: _196  and  _197
REMARK   83  A    between atoms: _200  and  _202
REMARK   84  A    between atoms: _202  and  _203
REMARK   85  A    between atoms: _202  and  _205
REMARK   86  A    between atoms: _205  and  _206
REMARK   87  A    between atoms: _206  and  _207
REMARK   88  A    between atoms: _207  and  _208
REMARK   89  A    between atoms: _217  and  _219
REMARK   90  A    between atoms: _219  and  _220
REMARK   91  A    between atoms: _219  and  _222
REMARK   92  A    between atoms: _222  and  _223
REMARK   93  A    between atoms: _226  and  _228
REMARK   94  A    between atoms: _228  and  _229
REMARK   95  A    between atoms: _228  and  _231
REMARK   96  A    between atoms: _231  and  _232
REMARK   97  A    between atoms: _235  and  _237
REMARK   98  A    between atoms: _237  and  _238
REMARK   99  A    between atoms: _237  and  _240
REMARK  100  A    between atoms: _240  and  _241
REMARK  101  A    between atoms: _244  and  _246
REMARK  102  A    between atoms: _246  and  _247
REMARK  103  A    between atoms: _246  and  _249
REMARK  104  A    between atoms: _249  and  _250
REMARK  105  A    between atoms: _253  and  _255
REMARK  106  A    between atoms: _255  and  _256
REMARK  107  A    between atoms: _255  and  _258
REMARK  108  A    between atoms: _258  and  _259
REMARK  109  A    between atoms: _259  and  _260
REMARK  110  A    between atoms: _263  and  _265
REMARK  111  A    between atoms: _265  and  _266
REMARK  112  A    between atoms: _265  and  _268
REMARK  113  A    between atoms: _268  and  _269
REMARK  114  A    between atoms: _269  and  _270
REMARK  115  A    between atoms: _270  and  _271
REMARK  116  A    between atoms: _281  and  _282
REMARK  117  A    between atoms: _287  and  _289
REMARK  118  A    between atoms: _289  and  _290
REMARK  119  A    between atoms: _289  and  _292
REMARK  120  A    between atoms: _292  and  _293
REMARK  121  A    between atoms: _293  and  _294
REMARK  122  A    between atoms: _297  and  _299
REMARK  123  A    between atoms: _299  and  _300
REMARK  124  A    between atoms: _299  and  _302
REMARK  125  A    between atoms: _305  and  _307
REMARK  126  A    between atoms: _307  and  _308
REMARK  127  A    between atoms: _307  and  _310
REMARK  128  A    between atoms: _310  and  _311
REMARK  129  A    between atoms: _311  and  _312
REMARK  130  A    between atoms: _317  and  _319
REMARK  131  A    between atoms: _319  and  _320
REMARK  132  A    between atoms: _319  and  _322
REMARK  133  A    between atoms: _322  and  _323
REMARK  134  A    between atoms: _326  and  _328
REMARK  135  A    between atoms: _328  and  _329
REMARK  136  A    between atoms: _328  and  _331
REMARK  137  A    between atoms: _331  and  _332
REMARK  138  A    between atoms: _338  and  _340
REMARK  139  A    between atoms: _340  and  _341
REMARK  140  A    between atoms: _340  and  _343
REMARK  141  A    between atoms: _343  and  _344
REMARK  142  A    between atoms: _347  and  _349
REMARK  143  A    between atoms: _349  and  _350
REMARK  144  A    between atoms: _349  and  _352
REMARK  145  A    between atoms: _352  and  _353
REMARK  146  A    between atoms: _353  and  _354
REMARK  147  A    between atoms: _354  and  _355
REMARK  148  A    between atoms: _355  and  _356
REMARK  149  A    between atoms: _360  and  _362
REMARK  150  A    between atoms: _362  and  _363
REMARK  151  A    between atoms: _362  and  _365
REMARK  152  A    between atoms: _365  and  _366
REMARK  153  A    between atoms: _369  and  _371
REMARK  154  A    between atoms: _371  and  _372
REMARK  155  A    between atoms: _371  and  _374
REMARK  156  A    between atoms: _374  and  _375
REMARK  157  A    between atoms: _375  and  _376
REMARK  158  A    between atoms: _379  and  _381
REMARK  159  A    between atoms: _381  and  _382
REMARK  160  A    between atoms: _381  and  _384
REMARK  161  A    between atoms: _384  and  _385
REMARK  162  A    between atoms: _390  and  _392
REMARK  163  A    between atoms: _392  and  _393
REMARK  164  A    between atoms: _392  and  _395
REMARK  165  A    between atoms: _395  and  _396
REMARK  166  A    between atoms: _399  and  _401
REMARK  167  A    between atoms: _401  and  _402
REMARK  168  A    between atoms: _401  and  _404
REMARK  169  A    between atoms: _404  and  _405
REMARK  170  A    between atoms: _408  and  _410
REMARK  171  A    between atoms: _410  and  _411
REMARK  172  A    between atoms: _410  and  _413
REMARK  173  A    between atoms: _413  and  _414
REMARK  174  A    between atoms: _417  and  _419
REMARK  175  A    between atoms: _419  and  _420
REMARK  176  A    between atoms: _419  and  _422
REMARK  177  A    between atoms: _422  and  _423
REMARK  178  A    between atoms: _423  and  _424
REMARK  179  A    between atoms: _424  and  _425
REMARK  180  A    between atoms: _425  and  _426
REMARK  181  A    between atoms: _430  and  _432
REMARK  182  A    between atoms: _432  and  _433
REMARK  183  A    between atoms: _432  and  _435
REMARK  184  A    between atoms: _435  and  _436
REMARK  185  A    between atoms: _439  and  _441
REMARK  186  A    between atoms: _441  and  _442
REMARK  187  A    between atoms: _441  and  _444
REMARK  188  A    between atoms: _444  and  _445
REMARK  189  A    between atoms: _448  and  _450
REMARK  190  A    between atoms: _450  and  _451
REMARK  191  A    between atoms: _450  and  _453
REMARK  192  A    between atoms: _453  and  _454
REMARK  193  A    between atoms: _457  and  _459
REMARK  194  A    between atoms: _459  and  _460
REMARK  195  A    between atoms: _459  and  _462
REMARK  196  A    between atoms: _462  and  _463
REMARK  197  A    between atoms: _469  and  _471
REMARK  198  A    between atoms: _471  and  _472
REMARK  199  A    between atoms: _474  and  _476
REMARK  200  A    between atoms: _476  and  _477
REMARK  201  A    between atoms: _476  and  _479
REMARK  202  A    between atoms: _479  and  _480
REMARK                            x       y       z     vdW  Elec       q    Type
REMARK                         _______ _______ _______ _____ _____    ______ ____
ROOT
ATOM      1  O   HOH     1      -7.805 -39.100   8.435  0.00  0.00    +0.000 OA
ENDROOT
TORSDOF 0
REMARK  Name = ../refined-set-2016/1xws/1xws_pocket.pdb
REMARK  202 active torsions:
REMARK  status: ('A' for Active; 'I' for Inactive)
REMARK    1  A    between atoms: _1  and  _3
REMARK    2  A    between atoms: _3  and  _4
REMARK    3  A    between atoms: _3  and  _6
REMARK    4  A    between atoms: _6  and  _7
REMARK    5  A    between atoms: _10  and  _12
REMARK    6  A    between atoms: _12  and  _13
REMARK    7  A    between atoms: _12  and  _15
REMARK    8  A    between atoms: _15  and  _16
REMARK    9  A    between atoms: _19  and  _21
REMARK   10  A    between atoms: _21  and  _22
REMARK   11  A    between atoms: _24  and  _26
REMARK   12  A    between atoms: _26  and  _27
REMARK   13  A    between atoms: _26  and  _29
REMARK   14  A    between atoms: _29  and  _30
REMARK   15  A    between atoms: _32  and  _34
REMARK   16  A    between atoms: _34  and  _35
REMARK   17  A    between atoms: _37  and  _39
REMARK   18  A    between atoms: _39  and  _40
REMARK   19  A    between atoms: _42  and  _44
REMARK   20  A    between atoms: _44  and  _45
REMARK   21  A    between atoms: _44  and  _47
REMARK   22  A    between atoms: _47  and  _48
REMARK   23  A    between atoms: _54  and  _56
REMARK   24  A    between atoms: _56  and  _57
REMARK   25  A    between atoms: _59  and  _61
REMARK   26  A    between atoms: _61  and  _62
REMARK   27  A    between atoms: _61  and  _64
REMARK   28  A    between atoms: _64  and  _65
REMARK   29  A    between atoms: _67  and  _69
REMARK   30  A    between atoms: _69  and  _70
REMARK   31  A    between atoms: _69  and  _72
REMARK   32  A    between atoms: _75  and  _77
REMARK   33  A    between atoms: _77  and  _78
REMARK   34  A    between atoms: _77  and  _80
REMARK   35  A    between atoms: _80  and  _81
REMARK   36  A    between atoms: _86  and  _87
REMARK   37  A    between atoms: _89  and  _91
REMARK   38  A    between atoms: _91  and  _92
REMARK   39  A    between atoms: _91  and  _94
REMARK   40  A    between atoms: _94  and  _95
REMARK   41  A    between atoms: _97  and  _99
REMARK   42  A    between atoms: _99  and  _100
REMARK   43  A    between atoms: _103  and  _104
REMARK   44  A    between atoms: _109  and  _111
REMARK   45  A    between atoms: _111  and  _112
REMARK   46  A    between atoms: _111  and  _114
REMARK   47  A    between atoms: _117  and  _119
REMARK   48  A    between atoms: _119  and  _120
REMARK   49  A    between atoms: _123  and  _125
REMARK   50  A    between atoms: _125  and  _126
REMARK   51  A    between atoms: _125  and  _128
REMARK   52  A    between atoms: _128  and  _129
REMARK   53  A    between atoms: _132  and  _134
REMARK   54  A    between atoms: _134  and  _135
REMARK   55  A    between atoms: _134  and  _137
REMARK   56  A    between atoms: _137  and  _138
REMARK   57  A    between atoms: _138  and  _139
REMARK   58  A    between atoms: _139  and  _140
REMARK   59  A    between atoms: _140  and  _141
REMARK   60  A    between atoms: _145  and  _147
REMARK   61  A    between atoms: _147  and  _148
REMARK   62  A    between atoms: _147  and  _150
REMARK   63  A    between atoms: _150  and  _151
REMARK   64  A    between atoms: _156  and  _158
REMARK   65  A    between atoms: _158  and  _159
REMARK   66  A    between atoms: _158  and  _161
REMARK   67  A    between atoms: _164  and  _166
REMARK   68  A    between atoms: _166  and  _167
REMARK   69  A    between atoms: _166  and  _169
REMARK   70  A    between atoms: _169  and  _170
REMARK   71  A    between atoms: _170  and  _171
REMARK   72  A    between atoms: _174  and  _176
REMARK   73  A    between atoms: _176  and  _177
REMARK   74  A    between atoms: _176  and  _179
REMARK   75  A    between atoms: _179  and  _180
REMARK   76  A    between atoms: _183  and  _185
REMARK   77  A    between atoms: _185  and  _186
REMARK   78  A    between atoms: _185  and  _188
REMARK   79  A    between atoms: _191  and  _193
REMARK   80  A    between atoms: _193  and  _194
REMARK   81  A    between atoms: _193  and  _196
REMARK   82  A    between atoms: _196  and  _197
REMARK   83  A    between atoms: _200  and  _202
REMARK   84  A    between atoms: _202  and  _203
REMARK   85  A    between atoms: _202  and  _205
REMARK   86  A    between atoms: _205  and  _206
REMARK   87  A    between atoms: _206  and  _207
REMARK   88  A    between atoms: _207  and  _208
REMARK   89  A    between atoms: _217  and  _219
REMARK   90  A    between atoms: _219  and  _220
REMARK   91  A    between atoms: _219  and  _222
REMARK   92  A    between atoms: _222  and  _223
REMARK   93  A    between atoms: _226  and  _228
REMARK   94  A    between atoms: _228  and  _229
REMARK   95  A    between atoms: _228  and  _231
REMARK   96  A    between atoms: _231  and  _232
REMARK   97  A    between atoms: _235  and  _237
REMARK   98  A    between atoms: _237  and  _238
REMARK   99  A    between atoms: _237  and  _240
REMARK  100  A    between atoms: _240  and  _241
REMARK  101  A    between atoms: _244  and  _246
REMARK  102  A    between atoms: _246  and  _247
REMARK  103  A    between atoms: _246  and  _249
REMARK  104  A    between atoms: _249  and  _250
REMARK  105  A    between atoms: _253  and  _255
REMARK  106  A    between atoms: _255  and  _256
REMARK  107  A    between atoms: _255  and  _258
REMARK  108  A    between atoms: _258  and  _259
REMARK  109  A    between atoms: _259  and  _260
REMARK  110  A    between atoms: _263  and  _265
REMARK  111  A    between atoms: _265  and  _266
REMARK  112  A    between atoms: _265  and  _268
REMARK  113  A    between atoms: _268  and  _269
REMARK  114  A    between atoms: _269  and  _270
REMARK  115  A    between atoms: _270  and  _271
REMARK  116  A    between atoms: _281  and  _282
REMARK  117  A    between atoms: _287  and  _289
REMARK  118  A    between atoms: _289  and  _290
REMARK  119  A    between atoms: _289  and  _292
REMARK  120  A    between atoms: _292  and  _293
REMARK  121  A    between atoms: _293  and  _294
REMARK  122  A    between atoms: _297  and  _299
REMARK  123  A    between atoms: _299  and  _300
REMARK  124  A    between atoms: _299  and  _302
REMARK  125  A    between atoms: _305  and  _307
REMARK  126  A    between atoms: _307  and  _308
REMARK  127  A    between atoms: _307  and  _310
REMARK  128  A    between atoms: _310  and  _311
REMARK  129  A    between atoms: _311  and  _312
REMARK  130  A    between atoms: _317  and  _319
REMARK  131  A    between atoms: _319  and  _320
REMARK  132  A    between atoms: _319  and  _322
REMARK  133  A    between atoms: _322  and  _323
REMARK  134  A    between atoms: _326  and  _328
REMARK  135  A    between atoms: _328  and  _329
REMARK  136  A    between atoms: _328  and  _331
REMARK  137  A    between atoms: _331  and  _332
REMARK  138  A    between atoms: _338  and  _340
REMARK  139  A    between atoms: _340  and  _341
REMARK  140  A    between atoms: _340  and  _343
REMARK  141  A    between atoms: _343  and  _344
REMARK  142  A    between atoms: _347  and  _349
REMARK  143  A    between atoms: _349  and  _350
REMARK  144  A    between atoms: _349  and  _352
REMARK  145  A    between atoms: _352  and  _353
REMARK  146  A    between atoms: _353  and  _354
REMARK  147  A    between atoms: _354  and  _355
REMARK  148  A    between atoms: _355  and  _356
REMARK  149  A    between atoms: _360  and  _362
REMARK  150  A    between atoms: _362  and  _363
REMARK  151  A    between atoms: _362  and  _365
REMARK  152  A    between atoms: _365  and  _366
REMARK  153  A    between atoms: _369  and  _371
REMARK  154  A    between atoms: _371  and  _372
REMARK  155  A    between atoms: _371  and  _374
REMARK  156  A    between atoms: _374  and  _375
REMARK  157  A    between atoms: _375  and  _376
REMARK  158  A    between atoms: _379  and  _381
REMARK  159  A    between atoms: _381  and  _382
REMARK  160  A    between atoms: _381  and  _384
REMARK  161  A    between atoms: _384  and  _385
REMARK  162  A    between atoms: _390  and  _392
REMARK  163  A    between atoms: _392  and  _393
REMARK  164  A    between atoms: _392  and  _395
REMARK  165  A    between atoms: _395  and  _396
REMARK  166  A    between atoms: _399  and  _401
REMARK  167  A    between atoms: _401  and  _402
REMARK  168  A    between atoms: _401  and  _404
REMARK  169  A    between atoms: _404  and  _405
REMARK  170  A    between atoms: _408  and  _410
REMARK  171  A    between atoms: _410  and  _411
REMARK  172  A    between atoms: _410  and  _413
REMARK  173  A    between atoms: _413  and  _414
REMARK  174  A    between atoms: _417  and  _419
REMARK  175  A    between atoms: _419  and  _420
REMARK  176  A    between atoms: _419  and  _422
REMARK  177  A    between atoms: _422  and  _423
REMARK  178  A    between atoms: _423  and  _424
REMARK  179  A    between atoms: _424  and  _425
REMARK  180  A    between atoms: _425  and  _426
REMARK  181  A    between atoms: _430  and  _432
REMARK  182  A    between atoms: _432  and  _433
REMARK  183  A    between atoms: _432  and  _435
REMARK  184  A    between atoms: _435  and  _436
REMARK  185  A    between atoms: _439  and  _441
REMARK  186  A    between atoms: _441  and  _442
REMARK  187  A    between atoms: _441  and  _444
REMARK  188  A    between atoms: _444  and  _445
REMARK  189  A    between atoms: _448  and  _450
REMARK  190  A    between atoms: _450  and  _451
REMARK  191  A    between atoms: _450  and  _453
REMARK  192  A    between atoms: _453  and  _454
REMARK  193  A    between atoms: _457  and  _459
REMARK  194  A    between atoms: _459  and  _460
REMARK  195  A    between atoms: _459  and  _462
REMARK  196  A    between atoms: _462  and  _463
REMARK  197  A    between atoms: _469  and  _471
REMARK  198  A    between atoms: _471  and  _472
REMARK  199  A    between atoms: _474  and  _476
REMARK  200  A    between atoms: _476  and  _477
REMARK  201  A    between atoms: _476  and  _479
REMARK  202  A    between atoms: _479  and  _480
REMARK                            x       y       z     vdW  Elec       q    Type
REMARK                         _______ _______ _______ _____ _____    ______ ____
ROOT
ATOM      1  O   HOH     1     -24.873 -33.499   7.730  0.00  0.00    +0.000 OA
ENDROOT
TORSDOF 0
REMARK  Name = ../refined-set-2016/1xws/1xws_pocket.pdb
REMARK  202 active torsions:
REMARK  status: ('A' for Active; 'I' for Inactive)
REMARK    1  A    between atoms: _1  and  _3
REMARK    2  A    between atoms: _3  and  _4
REMARK    3  A    between atoms: _3  and  _6
REMARK    4  A    between atoms: _6  and  _7
REMARK    5  A    between atoms: _10  and  _12
REMARK    6  A    between atoms: _12  and  _13
REMARK    7  A    between atoms: _12  and  _15
REMARK    8  A    between atoms: _15  and  _16
REMARK    9  A    between atoms: _19  and  _21
REMARK   10  A    between atoms: _21  and  _22
REMARK   11  A    between atoms: _24  and  _26
REMARK   12  A    between atoms: _26  and  _27
REMARK   13  A    between atoms: _26  and  _29
REMARK   14  A    between atoms: _29  and  _30
REMARK   15  A    between atoms: _32  and  _34
REMARK   16  A    between atoms: _34  and  _35
REMARK   17  A    between atoms: _37  and  _39
REMARK   18  A    between atoms: _39  and  _40
REMARK   19  A    between atoms: _42  and  _44
REMARK   20  A    between atoms: _44  and  _45
REMARK   21  A    between atoms: _44  and  _47
REMARK   22  A    between atoms: _47  and  _48
REMARK   23  A    between atoms: _54  and  _56
REMARK   24  A    between atoms: _56  and  _57
REMARK   25  A    between atoms: _59  and  _61
REMARK   26  A    between atoms: _61  and  _62
REMARK   27  A    between atoms: _61  and  _64
REMARK   28  A    between atoms: _64  and  _65
REMARK   29  A    between atoms: _67  and  _69
REMARK   30  A    between atoms: _69  and  _70
REMARK   31  A    between atoms: _69  and  _72
REMARK   32  A    between atoms: _75  and  _77
REMARK   33  A    between atoms: _77  and  _78
REMARK   34  A    between atoms: _77  and  _80
REMARK   35  A    between atoms: _80  and  _81
REMARK   36  A    between atoms: _86  and  _87
REMARK   37  A    between atoms: _89  and  _91
REMARK   38  A    between atoms: _91  and  _92
REMARK   39  A    between atoms: _91  and  _94
REMARK   40  A    between atoms: _94  and  _95
REMARK   41  A    between atoms: _97  and  _99
REMARK   42  A    between atoms: _99  and  _100
REMARK   43  A    between atoms: _103  and  _104
REMARK   44  A    between atoms: _109  and  _111
REMARK   45  A    between atoms: _111  and  _112
REMARK   46  A    between atoms: _111  and  _114
REMARK   47  A    between atoms: _117  and  _119
REMARK   48  A    between atoms: _119  and  _120
REMARK   49  A    between atoms: _123  and  _125
REMARK   50  A    between atoms: _125  and  _126
REMARK   51  A    between atoms: _125  and  _128
REMARK   52  A    between atoms: _128  and  _129
REMARK   53  A    between atoms: _132  and  _134
REMARK   54  A    between atoms: _134  and  _135
REMARK   55  A    between atoms: _134  and  _137
REMARK   56  A    between atoms: _137  and  _138
REMARK   57  A    between atoms: _138  and  _139
REMARK   58  A    between atoms: _139  and  _140
REMARK   59  A    between atoms: _140  and  _141
REMARK   60  A    between atoms: _145  and  _147
REMARK   61  A    between atoms: _147  and  _148
REMARK   62  A    between atoms: _147  and  _150
REMARK   63  A    between atoms: _150  and  _151
REMARK   64  A    between atoms: _156  and  _158
REMARK   65  A    between atoms: _158  and  _159
REMARK   66  A    between atoms: _158  and  _161
REMARK   67  A    between atoms: _164  and  _166
REMARK   68  A    between atoms: _166  and  _167
REMARK   69  A    between atoms: _166  and  _169
REMARK   70  A    between atoms: _169  and  _170
REMARK   71  A    between atoms: _170  and  _171
REMARK   72  A    between atoms: _174  and  _176
REMARK   73  A    between atoms: _176  and  _177
REMARK   74  A    between atoms: _176  and  _179
REMARK   75  A    between atoms: _179  and  _180
REMARK   76  A    between atoms: _183  and  _185
REMARK   77  A    between atoms: _185  and  _186
REMARK   78  A    between atoms: _185  and  _188
REMARK   79  A    between atoms: _191  and  _193
REMARK   80  A    between atoms: _193  and  _194
REMARK   81  A    between atoms: _193  and  _196
REMARK   82  A    between atoms: _196  and  _197
REMARK   83  A    between atoms: _200  and  _202
REMARK   84  A    between atoms: _202  and  _203
REMARK   85  A    between atoms: _202  and  _205
REMARK   86  A    between atoms: _205  and  _206
REMARK   87  A    between atoms: _206  and  _207
REMARK   88  A    between atoms: _207  and  _208
REMARK   89  A    between atoms: _217  and  _219
REMARK   90  A    between atoms: _219  and  _220
REMARK   91  A    between atoms: _219  and  _222
REMARK   92  A    between atoms: _222  and  _223
REMARK   93  A    between atoms: _226  and  _228
REMARK   94  A    between atoms: _228  and  _229
REMARK   95  A    between atoms: _228  and  _231
REMARK   96  A    between atoms: _231  and  _232
REMARK   97  A    between atoms: _235  and  _237
REMARK   98  A    between atoms: _237  and  _238
REMARK   99  A    between atoms: _237  and  _240
REMARK  100  A    between atoms: _240  and  _241
REMARK  101  A    between atoms: _244  and  _246
REMARK  102  A    between atoms: _246  and  _247
REMARK  103  A    between atoms: _246  and  _249
REMARK  104  A    between atoms: _249  and  _250
REMARK  105  A    between atoms: _253  and  _255
REMARK  106  A    between atoms: _255  and  _256
REMARK  107  A    between atoms: _255  and  _258
REMARK  108  A    between atoms: _258  and  _259
REMARK  109  A    between atoms: _259  and  _260
REMARK  110  A    between atoms: _263  and  _265
REMARK  111  A    between atoms: _265  and  _266
REMARK  112  A    between atoms: _265  and  _268
REMARK  113  A    between atoms: _268  and  _269
REMARK  114  A    between atoms: _269  and  _270
REMARK  115  A    between atoms: _270  and  _271
REMARK  116  A    between atoms: _281  and  _282
REMARK  117  A    between atoms: _287  and  _289
REMARK  118  A    between atoms: _289  and  _290
REMARK  119  A    between atoms: _289  and  _292
REMARK  120  A    between atoms: _292  and  _293
REMARK  121  A    between atoms: _293  and  _294
REMARK  122  A    between atoms: _297  and  _299
REMARK  123  A    between atoms: _299  and  _300
REMARK  124  A    between atoms: _299  and  _302
REMARK  125  A    between atoms: _305  and  _307
REMARK  126  A    between atoms: _307  and  _308
REMARK  127  A    between atoms: _307  and  _310
REMARK  128  A    between atoms: _310  and  _311
REMARK  129  A    between atoms: _311  and  _312
REMARK  130  A    between atoms: _317  and  _319
REMARK  131  A    between atoms: _319  and  _320
REMARK  132  A    between atoms: _319  and  _322
REMARK  133  A    between atoms: _322  and  _323
REMARK  134  A    between atoms: _326  and  _328
REMARK  135  A    between atoms: _328  and  _329
REMARK  136  A    between atoms: _328  and  _331
REMARK  137  A    between atoms: _331  and  _332
REMARK  138  A    between atoms: _338  and  _340
REMARK  139  A    between atoms: _340  and  _341
REMARK  140  A    between atoms: _340  and  _343
REMARK  141  A    between atoms: _343  and  _344
REMARK  142  A    between atoms: _347  and  _349
REMARK  143  A    between atoms: _349  and  _350
REMARK  144  A    between atoms: _349  and  _352
REMARK  145  A    between atoms: _352  and  _353
REMARK  146  A    between atoms: _353  and  _354
REMARK  147  A    between atoms: _354  and  _355
REMARK  148  A    between atoms: _355  and  _356
REMARK  149  A    between atoms: _360  and  _362
REMARK  150  A    between atoms: _362  and  _363
REMARK  151  A    between atoms: _362  and  _365
REMARK  152  A    between atoms: _365  and  _366
REMARK  153  A    between atoms: _369  and  _371
REMARK  154  A    between atoms: _371  and  _372
REMARK  155  A    between atoms: _371  and  _374
REMARK  156  A    between atoms: _374  and  _375
REMARK  157  A    between atoms: _375  and  _376
REMARK  158  A    between atoms: _379  and  _381
REMARK  159  A    between atoms: _381  and  _382
REMARK  160  A    between atoms: _381  and  _384
REMARK  161  A    between atoms: _384  and  _385
REMARK  162  A    between atoms: _390  and  _392
REMARK  163  A    between atoms: _392  and  _393
REMARK  164  A    between atoms: _392  and  _395
REMARK  165  A    between atoms: _395  and  _396
REMARK  166  A    between atoms: _399  and  _401
REMARK  167  A    between atoms: _401  and  _402
REMARK  168  A    between atoms: _401  and  _404
REMARK  169  A    between atoms: _404  and  _405
REMARK  170  A    between atoms: _408  and  _410
REMARK  171  A    between atoms: _410  and  _411
REMARK  172  A    between atoms: _410  and  _413
REMARK  173  A    between atoms: _413  and  _414
REMARK  174  A    between atoms: _417  and  _419
REMARK  175  A    between atoms: _419  and  _420
REMARK  176  A    between atoms: _419  and  _422
REMARK  177  A    between atoms: _422  and  _423
REMARK  178  A    between atoms: _423  and  _424
REMARK  179  A    between atoms: _424  and  _425
REMARK  180  A    between atoms: _425  and  _426
REMARK  181  A    between atoms: _430  and  _432
REMARK  182  A    between atoms: _432  and  _433
REMARK  183  A    between atoms: _432  and  _435
REMARK  184  A    between atoms: _435  and  _436
REMARK  185  A    between atoms: _439  and  _441
REMARK  186  A    between atoms: _441  and  _442
REMARK  187  A    between atoms: _441  and  _444
REMARK  188  A    between atoms: _444  and  _445
REMARK  189  A    between atoms: _448  and  _450
REMARK  190  A    between atoms: _450  and  _451
REMARK  191  A    between atoms: _450  and  _453
REMARK  192  A    between atoms: _453  and  _454
REMARK  193  A    between atoms: _457  and  _459
REMARK  194  A    between atoms: _459  and  _460
REMARK  195  A    between atoms: _459  and  _462
REMARK  196  A    between atoms: _462  and  _463
REMARK  197  A    between atoms: _469  and  _471
REMARK  198  A    between atoms: _471  and  _472
REMARK  199  A    between atoms: _474  and  _476
REMARK  200  A    between atoms: _476  and  _477
REMARK  201  A    between atoms: _476  and  _479
REMARK  202  A    between atoms: _479  and  _480
REMARK                            x       y       z     vdW  Elec       q    Type
REMARK                         _______ _______ _______ _____ _____    ______ ____
ROOT
ATOM      1  O   HOH     1     -23.092 -41.097   3.654  0.00  0.00    +0.000 OA
ENDROOT
TORSDOF 0
REMARK  Name = ../refined-set-2016/1xws/1xws_pocket.pdb
REMARK  202 active torsions:
REMARK  status: ('A' for Active; 'I' for Inactive)
REMARK    1  A    between atoms: _1  and  _3
REMARK    2  A    between atoms: _3  and  _4
REMARK    3  A    between atoms: _3  and  _6
REMARK    4  A    between atoms: _6  and  _7
REMARK    5  A    between atoms: _10  and  _12
REMARK    6  A    between atoms: _12  and  _13
REMARK    7  A    between atoms: _12  and  _15
REMARK    8  A    between atoms: _15  and  _16
REMARK    9  A    between atoms: _19  and  _21
REMARK   10  A    between atoms: _21  and  _22
REMARK   11  A    between atoms: _24  and  _26
REMARK   12  A    between atoms: _26  and  _27
REMARK   13  A    between atoms: _26  and  _29
REMARK   14  A    between atoms: _29  and  _30
REMARK   15  A    between atoms: _32  and  _34
REMARK   16  A    between atoms: _34  and  _35
REMARK   17  A    between atoms: _37  and  _39
REMARK   18  A    between atoms: _39  and  _40
REMARK   19  A    between atoms: _42  and  _44
REMARK   20  A    between atoms: _44  and  _45
REMARK   21  A    between atoms: _44  and  _47
REMARK   22  A    between atoms: _47  and  _48
REMARK   23  A    between atoms: _54  and  _56
REMARK   24  A    between atoms: _56  and  _57
REMARK   25  A    between atoms: _59  and  _61
REMARK   26  A    between atoms: _61  and  _62
REMARK   27  A    between atoms: _61  and  _64
REMARK   28  A    between atoms: _64  and  _65
REMARK   29  A    between atoms: _67  and  _69
REMARK   30  A    between atoms: _69  and  _70
REMARK   31  A    between atoms: _69  and  _72
REMARK   32  A    between atoms: _75  and  _77
REMARK   33  A    between atoms: _77  and  _78
REMARK   34  A    between atoms: _77  and  _80
REMARK   35  A    between atoms: _80  and  _81
REMARK   36  A    between atoms: _86  and  _87
REMARK   37  A    between atoms: _89  and  _91
REMARK   38  A    between atoms: _91  and  _92
REMARK   39  A    between atoms: _91  and  _94
REMARK   40  A    between atoms: _94  and  _95
REMARK   41  A    between atoms: _97  and  _99
REMARK   42  A    between atoms: _99  and  _100
REMARK   43  A    between atoms: _103  and  _104
REMARK   44  A    between atoms: _109  and  _111
REMARK   45  A    between atoms: _111  and  _112
REMARK   46  A    between atoms: _111  and  _114
REMARK   47  A    between atoms: _117  and  _119
REMARK   48  A    between atoms: _119  and  _120
REMARK   49  A    between atoms: _123  and  _125
REMARK   50  A    between atoms: _125  and  _126
REMARK   51  A    between atoms: _125  and  _128
REMARK   52  A    between atoms: _128  and  _129
REMARK   53  A    between atoms: _132  and  _134
REMARK   54  A    between atoms: _134  and  _135
REMARK   55  A    between atoms: _134  and  _137
REMARK   56  A    between atoms: _137  and  _138
REMARK   57  A    between atoms: _138  and  _139
REMARK   58  A    between atoms: _139  and  _140
REMARK   59  A    between atoms: _140  and  _141
REMARK   60  A    between atoms: _145  and  _147
REMARK   61  A    between atoms: _147  and  _148
REMARK   62  A    between atoms: _147  and  _150
REMARK   63  A    between atoms: _150  and  _151
REMARK   64  A    between atoms: _156  and  _158
REMARK   65  A    between atoms: _158  and  _159
REMARK   66  A    between atoms: _158  and  _161
REMARK   67  A    between atoms: _164  and  _166
REMARK   68  A    between atoms: _166  and  _167
REMARK   69  A    between atoms: _166  and  _169
REMARK   70  A    between atoms: _169  and  _170
REMARK   71  A    between atoms: _170  and  _171
REMARK   72  A    between atoms: _174  and  _176
REMARK   73  A    between atoms: _176  and  _177
REMARK   74  A    between atoms: _176  and  _179
REMARK   75  A    between atoms: _179  and  _180
REMARK   76  A    between atoms: _183  and  _185
REMARK   77  A    between atoms: _185  and  _186
REMARK   78  A    between atoms: _185  and  _188
REMARK   79  A    between atoms: _191  and  _193
REMARK   80  A    between atoms: _193  and  _194
REMARK   81  A    between atoms: _193  and  _196
REMARK   82  A    between atoms: _196  and  _197
REMARK   83  A    between atoms: _200  and  _202
REMARK   84  A    between atoms: _202  and  _203
REMARK   85  A    between atoms: _202  and  _205
REMARK   86  A    between atoms: _205  and  _206
REMARK   87  A    between atoms: _206  and  _207
REMARK   88  A    between atoms: _207  and  _208
REMARK   89  A    between atoms: _217  and  _219
REMARK   90  A    between atoms: _219  and  _220
REMARK   91  A    between atoms: _219  and  _222
REMARK   92  A    between atoms: _222  and  _223
REMARK   93  A    between atoms: _226  and  _228
REMARK   94  A    between atoms: _228  and  _229
REMARK   95  A    between atoms: _228  and  _231
REMARK   96  A    between atoms: _231  and  _232
REMARK   97  A    between atoms: _235  and  _237
REMARK   98  A    between atoms: _237  and  _238
REMARK   99  A    between atoms: _237  and  _240
REMARK  100  A    between atoms: _240  and  _241
REMARK  101  A    between atoms: _244  and  _246
REMARK  102  A    between atoms: _246  and  _247
REMARK  103  A    between atoms: _246  and  _249
REMARK  104  A    between atoms: _249  and  _250
REMARK  105  A    between atoms: _253  and  _255
REMARK  106  A    between atoms: _255  and  _256
REMARK  107  A    between atoms: _255  and  _258
REMARK  108  A    between atoms: _258  and  _259
REMARK  109  A    between atoms: _259  and  _260
REMARK  110  A    between atoms: _263  and  _265
REMARK  111  A    between atoms: _265  and  _266
REMARK  112  A    between atoms: _265  and  _268
REMARK  113  A    between atoms: _268  and  _269
REMARK  114  A    between atoms: _269  and  _270
REMARK  115  A    between atoms: _270  and  _271
REMARK  116  A    between atoms: _281  and  _282
REMARK  117  A    between atoms: _287  and  _289
REMARK  118  A    between atoms: _289  and  _290
REMARK  119  A    between atoms: _289  and  _292
REMARK  120  A    between atoms: _292  and  _293
REMARK  121  A    between atoms: _293  and  _294
REMARK  122  A    between atoms: _297  and  _299
REMARK  123  A    between atoms: _299  and  _300
REMARK  124  A    between atoms: _299  and  _302
REMARK  125  A    between atoms: _305  and  _307
REMARK  126  A    between atoms: _307  and  _308
REMARK  127  A    between atoms: _307  and  _310
REMARK  128  A    between atoms: _310  and  _311
REMARK  129  A    between atoms: _311  and  _312
REMARK  130  A    between atoms: _317  and  _319
REMARK  131  A    between atoms: _319  and  _320
REMARK  132  A    between atoms: _319  and  _322
REMARK  133  A    between atoms: _322  and  _323
REMARK  134  A    between atoms: _326  and  _328
REMARK  135  A    between atoms: _328  and  _329
REMARK  136  A    between atoms: _328  and  _331
REMARK  137  A    between atoms: _331  and  _332
REMARK  138  A    between atoms: _338  and  _340
REMARK  139  A    between atoms: _340  and  _341
REMARK  140  A    between atoms: _340  and  _343
REMARK  141  A    between atoms: _343  and  _344
REMARK  142  A    between atoms: _347  and  _349
REMARK  143  A    between atoms: _349  and  _350
REMARK  144  A    between atoms: _349  and  _352
REMARK  145  A    between atoms: _352  and  _353
REMARK  146  A    between atoms: _353  and  _354
REMARK  147  A    between atoms: _354  and  _355
REMARK  148  A    between atoms: _355  and  _356
REMARK  149  A    between atoms: _360  and  _362
REMARK  150  A    between atoms: _362  and  _363
REMARK  151  A    between atoms: _362  and  _365
REMARK  152  A    between atoms: _365  and  _366
REMARK  153  A    between atoms: _369  and  _371
REMARK  154  A    between atoms: _371  and  _372
REMARK  155  A    between atoms: _371  and  _374
REMARK  156  A    between atoms: _374  and  _375
REMARK  157  A    between atoms: _375  and  _376
REMARK  158  A    between atoms: _379  and  _381
REMARK  159  A    between atoms: _381  and  _382
REMARK  160  A    between atoms: _381  and  _384
REMARK  161  A    between atoms: _384  and  _385
REMARK  162  A    between atoms: _390  and  _392
REMARK  163  A    between atoms: _392  and  _393
REMARK  164  A    between atoms: _392  and  _395
REMARK  165  A    between atoms: _395  and  _396
REMARK  166  A    between atoms: _399  and  _401
REMARK  167  A    between atoms: _401  and  _402
REMARK  168  A    between atoms: _401  and  _404
REMARK  169  A    between atoms: _404  and  _405
REMARK  170  A    between atoms: _408  and  _410
REMARK  171  A    between atoms: _410  and  _411
REMARK  172  A    between atoms: _410  and  _413
REMARK  173  A    between atoms: _413  and  _414
REMARK  174  A    between atoms: _417  and  _419
REMARK  175  A    between atoms: _419  and  _420
REMARK  176  A    between atoms: _419  and  _422
REMARK  177  A    between atoms: _422  and  _423
REMARK  178  A    between atoms: _423  and  _424
REMARK  179  A    between atoms: _424  and  _425
REMARK  180  A    between atoms: _425  and  _426
REMARK  181  A    between atoms: _430  and  _432
REMARK  182  A    between atoms: _432  and  _433
REMARK  183  A    between atoms: _432  and  _435
REMARK  184  A    between atoms: _435  and  _436
REMARK  185  A    between atoms: _439  and  _441
REMARK  186  A    between atoms: _441  and  _442
REMARK  187  A    between atoms: _441  and  _444
REMARK  188  A    between atoms: _444  and  _445
REMARK  189  A    between atoms: _448  and  _450
REMARK  190  A    between atoms: _450  and  _451
REMARK  191  A    between atoms: _450  and  _453
REMARK  192  A    between atoms: _453  and  _454
REMARK  193  A    between atoms: _457  and  _459
REMARK  194  A    between atoms: _459  and  _460
REMARK  195  A    between atoms: _459  and  _462
REMARK  196  A    between atoms: _462  and  _463
REMARK  197  A    between atoms: _469  and  _471
REMARK  198  A    between atoms: _471  and  _472
REMARK  199  A    between atoms: _474  and  _476
REMARK  200  A    between atoms: _476  and  _477
REMARK  201  A    between atoms: _476  and  _479
REMARK  202  A    between atoms: _479  and  _480
REMARK                            x       y       z     vdW  Elec       q    Type
REMARK                         _______ _______ _______ _____ _____    ______ ____
ROOT
ATOM      1  O   HOH     1     -13.058 -29.949   5.686  0.00  0.00    +0.000 OA
ENDROOT
TORSDOF 0
REMARK  Name = ../refined-set-2016/1xws/1xws_pocket.pdb
REMARK  202 active torsions:
REMARK  status: ('A' for Active; 'I' for Inactive)
REMARK    1  A    between atoms: _1  and  _3
REMARK    2  A    between atoms: _3  and  _4
REMARK    3  A    between atoms: _3  and  _6
REMARK    4  A    between atoms: _6  and  _7
REMARK    5  A    between atoms: _10  and  _12
REMARK    6  A    between atoms: _12  and  _13
REMARK    7  A    between atoms: _12  and  _15
REMARK    8  A    between atoms: _15  and  _16
REMARK    9  A    between atoms: _19  and  _21
REMARK   10  A    between atoms: _21  and  _22
REMARK   11  A    between atoms: _24  and  _26
REMARK   12  A    between atoms: _26  and  _27
REMARK   13  A    between atoms: _26  and  _29
REMARK   14  A    between atoms: _29  and  _30
REMARK   15  A    between atoms: _32  and  _34
REMARK   16  A    between atoms: _34  and  _35
REMARK   17  A    between atoms: _37  and  _39
REMARK   18  A    between atoms: _39  and  _40
REMARK   19  A    between atoms: _42  and  _44
REMARK   20  A    between atoms: _44  and  _45
REMARK   21  A    between atoms: _44  and  _47
REMARK   22  A    between atoms: _47  and  _48
REMARK   23  A    between atoms: _54  and  _56
REMARK   24  A    between atoms: _56  and  _57
REMARK   25  A    between atoms: _59  and  _61
REMARK   26  A    between atoms: _61  and  _62
REMARK   27  A    between atoms: _61  and  _64
REMARK   28  A    between atoms: _64  and  _65
REMARK   29  A    between atoms: _67  and  _69
REMARK   30  A    between atoms: _69  and  _70
REMARK   31  A    between atoms: _69  and  _72
REMARK   32  A    between atoms: _75  and  _77
REMARK   33  A    between atoms: _77  and  _78
REMARK   34  A    between atoms: _77  and  _80
REMARK   35  A    between atoms: _80  and  _81
REMARK   36  A    between atoms: _86  and  _87
REMARK   37  A    between atoms: _89  and  _91
REMARK   38  A    between atoms: _91  and  _92
REMARK   39  A    between atoms: _91  and  _94
REMARK   40  A    between atoms: _94  and  _95
REMARK   41  A    between atoms: _97  and  _99
REMARK   42  A    between atoms: _99  and  _100
REMARK   43  A    between atoms: _103  and  _104
REMARK   44  A    between atoms: _109  and  _111
REMARK   45  A    between atoms: _111  and  _112
REMARK   46  A    between atoms: _111  and  _114
REMARK   47  A    between atoms: _117  and  _119
REMARK   48  A    between atoms: _119  and  _120
REMARK   49  A    between atoms: _123  and  _125
REMARK   50  A    between atoms: _125  and  _126
REMARK   51  A    between atoms: _125  and  _128
REMARK   52  A    between atoms: _128  and  _129
REMARK   53  A    between atoms: _132  and  _134
REMARK   54  A    between atoms: _134  and  _135
REMARK   55  A    between atoms: _134  and  _137
REMARK   56  A    between atoms: _137  and  _138
REMARK   57  A    between atoms: _138  and  _139
REMARK   58  A    between atoms: _139  and  _140
REMARK   59  A    between atoms: _140  and  _141
REMARK   60  A    between atoms: _145  and  _147
REMARK   61  A    between atoms: _147  and  _148
REMARK   62  A    between atoms: _147  and  _150
REMARK   63  A    between atoms: _150  and  _151
REMARK   64  A    between atoms: _156  and  _158
REMARK   65  A    between atoms: _158  and  _159
REMARK   66  A    between atoms: _158  and  _161
REMARK   67  A    between atoms: _164  and  _166
REMARK   68  A    between atoms: _166  and  _167
REMARK   69  A    between atoms: _166  and  _169
REMARK   70  A    between atoms: _169  and  _170
REMARK   71  A    between atoms: _170  and  _171
REMARK   72  A    between atoms: _174  and  _176
REMARK   73  A    between atoms: _176  and  _177
REMARK   74  A    between atoms: _176  and  _179
REMARK   75  A    between atoms: _179  and  _180
REMARK   76  A    between atoms: _183  and  _185
REMARK   77  A    between atoms: _185  and  _186
REMARK   78  A    between atoms: _185  and  _188
REMARK   79  A    between atoms: _191  and  _193
REMARK   80  A    between atoms: _193  and  _194
REMARK   81  A    between atoms: _193  and  _196
REMARK   82  A    between atoms: _196  and  _197
REMARK   83  A    between atoms: _200  and  _202
REMARK   84  A    between atoms: _202  and  _203
REMARK   85  A    between atoms: _202  and  _205
REMARK   86  A    between atoms: _205  and  _206
REMARK   87  A    between atoms: _206  and  _207
REMARK   88  A    between atoms: _207  and  _208
REMARK   89  A    between atoms: _217  and  _219
REMARK   90  A    between atoms: _219  and  _220
REMARK   91  A    between atoms: _219  and  _222
REMARK   92  A    between atoms: _222  and  _223
REMARK   93  A    between atoms: _226  and  _228
REMARK   94  A    between atoms: _228  and  _229
REMARK   95  A    between atoms: _228  and  _231
REMARK   96  A    between atoms: _231  and  _232
REMARK   97  A    between atoms: _235  and  _237
REMARK   98  A    between atoms: _237  and  _238
REMARK   99  A    between atoms: _237  and  _240
REMARK  100  A    between atoms: _240  and  _241
REMARK  101  A    between atoms: _244  and  _246
REMARK  102  A    between atoms: _246  and  _247
REMARK  103  A    between atoms: _246  and  _249
REMARK  104  A    between atoms: _249  and  _250
REMARK  105  A    between atoms: _253  and  _255
REMARK  106  A    between atoms: _255  and  _256
REMARK  107  A    between atoms: _255  and  _258
REMARK  108  A    between atoms: _258  and  _259
REMARK  109  A    between atoms: _259  and  _260
REMARK  110  A    between atoms: _263  and  _265
REMARK  111  A    between atoms: _265  and  _266
REMARK  112  A    between atoms: _265  and  _268
REMARK  113  A    between atoms: _268  and  _269
REMARK  114  A    between atoms: _269  and  _270
REMARK  115  A    between atoms: _270  and  _271
REMARK  116  A    between atoms: _281  and  _282
REMARK  117  A    between atoms: _287  and  _289
REMARK  118  A    between atoms: _289  and  _290
REMARK  119  A    between atoms: _289  and  _292
REMARK  120  A    between atoms: _292  and  _293
REMARK  121  A    between atoms: _293  and  _294
REMARK  122  A    between atoms: _297  and  _299
REMARK  123  A    between atoms: _299  and  _300
REMARK  124  A    between atoms: _299  and  _302
REMARK  125  A    between atoms: _305  and  _307
REMARK  126  A    between atoms: _307  and  _308
REMARK  127  A    between atoms: _307  and  _310
REMARK  128  A    between atoms: _310  and  _311
REMARK  129  A    between atoms: _311  and  _312
REMARK  130  A    between atoms: _317  and  _319
REMARK  131  A    between atoms: _319  and  _320
REMARK  132  A    between atoms: _319  and  _322
REMARK  133  A    between atoms: _322  and  _323
REMARK  134  A    between atoms: _326  and  _328
REMARK  135  A    between atoms: _328  and  _329
REMARK  136  A    between atoms: _328  and  _331
REMARK  137  A    between atoms: _331  and  _332
REMARK  138  A    between atoms: _338  and  _340
REMARK  139  A    between atoms: _340  and  _341
REMARK  140  A    between atoms: _340  and  _343
REMARK  141  A    between atoms: _343  and  _344
REMARK  142  A    between atoms: _347  and  _349
REMARK  143  A    between atoms: _349  and  _350
REMARK  144  A    between atoms: _349  and  _352
REMARK  145  A    between atoms: _352  and  _353
REMARK  146  A    between atoms: _353  and  _354
REMARK  147  A    between atoms: _354  and  _355
REMARK  148  A    between atoms: _355  and  _356
REMARK  149  A    between atoms: _360  and  _362
REMARK  150  A    between atoms: _362  and  _363
REMARK  151  A    between atoms: _362  and  _365
REMARK  152  A    between atoms: _365  and  _366
REMARK  153  A    between atoms: _369  and  _371
REMARK  154  A    between atoms: _371  and  _372
REMARK  155  A    between atoms: _371  and  _374
REMARK  156  A    between atoms: _374  and  _375
REMARK  157  A    between atoms: _375  and  _376
REMARK  158  A    between atoms: _379  and  _381
REMARK  159  A    between atoms: _381  and  _382
REMARK  160  A    between atoms: _381  and  _384
REMARK  161  A    between atoms: _384  and  _385
REMARK  162  A    between atoms: _390  and  _392
REMARK  163  A    between atoms: _392  and  _393
REMARK  164  A    between atoms: _392  and  _395
REMARK  165  A    between atoms: _395  and  _396
REMARK  166  A    between atoms: _399  and  _401
REMARK  167  A    between atoms: _401  and  _402
REMARK  168  A    between atoms: _401  and  _404
REMARK  169  A    between atoms: _404  and  _405
REMARK  170  A    between atoms: _408  and  _410
REMARK  171  A    between atoms: _410  and  _411
REMARK  172  A    between atoms: _410  and  _413
REMARK  173  A    between atoms: _413  and  _414
REMARK  174  A    between atoms: _417  and  _419
REMARK  175  A    between atoms: _419  and  _420
REMARK  176  A    between atoms: _419  and  _422
REMARK  177  A    between atoms: _422  and  _423
REMARK  178  A    between atoms: _423  and  _424
REMARK  179  A    between atoms: _424  and  _425
REMARK  180  A    between atoms: _425  and  _426
REMARK  181  A    between atoms: _430  and  _432
REMARK  182  A    between atoms: _432  and  _433
REMARK  183  A    between atoms: _432  and  _435
REMARK  184  A    between atoms: _435  and  _436
REMARK  185  A    between atoms: _439  and  _441
REMARK  186  A    between atoms: _441  and  _442
REMARK  187  A    between atoms: _441  and  _444
REMARK  188  A    between atoms: _444  and  _445
REMARK  189  A    between atoms: _448  and  _450
REMARK  190  A    between atoms: _450  and  _451
REMARK  191  A    between atoms: _450  and  _453
REMARK  192  A    between atoms: _453  and  _454
REMARK  193  A    between atoms: _457  and  _459
REMARK  194  A    between atoms: _459  and  _460
REMARK  195  A    between atoms: _459  and  _462
REMARK  196  A    between atoms: _462  and  _463
REMARK  197  A    between atoms: _469  and  _471
REMARK  198  A    between atoms: _471  and  _472
REMARK  199  A    between atoms: _474  and  _476
REMARK  200  A    between atoms: _476  and  _477
REMARK  201  A    between atoms: _476  and  _479
REMARK  202  A    between atoms: _479  and  _480
REMARK                            x       y       z     vdW  Elec       q    Type
REMARK                         _______ _______ _______ _____ _____    ______ ____
ROOT
ATOM      1  O   HOH     1     -25.474 -45.729   3.505  0.00  0.00    +0.000 OA
ENDROOT
TORSDOF 0
REMARK  Name = ../refined-set-2016/1xws/1xws_pocket.pdb
REMARK  202 active torsions:
REMARK  status: ('A' for Active; 'I' for Inactive)
REMARK    1  A    between atoms: _1  and  _3
REMARK    2  A    between atoms: _3  and  _4
REMARK    3  A    between atoms: _3  and  _6
REMARK    4  A    between atoms: _6  and  _7
REMARK    5  A    between atoms: _10  and  _12
REMARK    6  A    between atoms: _12  and  _13
REMARK    7  A    between atoms: _12  and  _15
REMARK    8  A    between atoms: _15  and  _16
REMARK    9  A    between atoms: _19  and  _21
REMARK   10  A    between atoms: _21  and  _22
REMARK   11  A    between atoms: _24  and  _26
REMARK   12  A    between atoms: _26  and  _27
REMARK   13  A    between atoms: _26  and  _29
REMARK   14  A    between atoms: _29  and  _30
REMARK   15  A    between atoms: _32  and  _34
REMARK   16  A    between atoms: _34  and  _35
REMARK   17  A    between atoms: _37  and  _39
REMARK   18  A    between atoms: _39  and  _40
REMARK   19  A    between atoms: _42  and  _44
REMARK   20  A    between atoms: _44  and  _45
REMARK   21  A    between atoms: _44  and  _47
REMARK   22  A    between atoms: _47  and  _48
REMARK   23  A    between atoms: _54  and  _56
REMARK   24  A    between atoms: _56  and  _57
REMARK   25  A    between atoms: _59  and  _61
REMARK   26  A    between atoms: _61  and  _62
REMARK   27  A    between atoms: _61  and  _64
REMARK   28  A    between atoms: _64  and  _65
REMARK   29  A    between atoms: _67  and  _69
REMARK   30  A    between atoms: _69  and  _70
REMARK   31  A    between atoms: _69  and  _72
REMARK   32  A    between atoms: _75  and  _77
REMARK   33  A    between atoms: _77  and  _78
REMARK   34  A    between atoms: _77  and  _80
REMARK   35  A    between atoms: _80  and  _81
REMARK   36  A    between atoms: _86  and  _87
REMARK   37  A    between atoms: _89  and  _91
REMARK   38  A    between atoms: _91  and  _92
REMARK   39  A    between atoms: _91  and  _94
REMARK   40  A    between atoms: _94  and  _95
REMARK   41  A    between atoms: _97  and  _99
REMARK   42  A    between atoms: _99  and  _100
REMARK   43  A    between atoms: _103  and  _104
REMARK   44  A    between atoms: _109  and  _111
REMARK   45  A    between atoms: _111  and  _112
REMARK   46  A    between atoms: _111  and  _114
REMARK   47  A    between atoms: _117  and  _119
REMARK   48  A    between atoms: _119  and  _120
REMARK   49  A    between atoms: _123  and  _125
REMARK   50  A    between atoms: _125  and  _126
REMARK   51  A    between atoms: _125  and  _128
REMARK   52  A    between atoms: _128  and  _129
REMARK   53  A    between atoms: _132  and  _134
REMARK   54  A    between atoms: _134  and  _135
REMARK   55  A    between atoms: _134  and  _137
REMARK   56  A    between atoms: _137  and  _138
REMARK   57  A    between atoms: _138  and  _139
REMARK   58  A    between atoms: _139  and  _140
REMARK   59  A    between atoms: _140  and  _141
REMARK   60  A    between atoms: _145  and  _147
REMARK   61  A    between atoms: _147  and  _148
REMARK   62  A    between atoms: _147  and  _150
REMARK   63  A    between atoms: _150  and  _151
REMARK   64  A    between atoms: _156  and  _158
REMARK   65  A    between atoms: _158  and  _159
REMARK   66  A    between atoms: _158  and  _161
REMARK   67  A    between atoms: _164  and  _166
REMARK   68  A    between atoms: _166  and  _167
REMARK   69  A    between atoms: _166  and  _169
REMARK   70  A    between atoms: _169  and  _170
REMARK   71  A    between atoms: _170  and  _171
REMARK   72  A    between atoms: _174  and  _176
REMARK   73  A    between atoms: _176  and  _177
REMARK   74  A    between atoms: _176  and  _179
REMARK   75  A    between atoms: _179  and  _180
REMARK   76  A    between atoms: _183  and  _185
REMARK   77  A    between atoms: _185  and  _186
REMARK   78  A    between atoms: _185  and  _188
REMARK   79  A    between atoms: _191  and  _193
REMARK   80  A    between atoms: _193  and  _194
REMARK   81  A    between atoms: _193  and  _196
REMARK   82  A    between atoms: _196  and  _197
REMARK   83  A    between atoms: _200  and  _202
REMARK   84  A    between atoms: _202  and  _203
REMARK   85  A    between atoms: _202  and  _205
REMARK   86  A    between atoms: _205  and  _206
REMARK   87  A    between atoms: _206  and  _207
REMARK   88  A    between atoms: _207  and  _208
REMARK   89  A    between atoms: _217  and  _219
REMARK   90  A    between atoms: _219  and  _220
REMARK   91  A    between atoms: _219  and  _222
REMARK   92  A    between atoms: _222  and  _223
REMARK   93  A    between atoms: _226  and  _228
REMARK   94  A    between atoms: _228  and  _229
REMARK   95  A    between atoms: _228  and  _231
REMARK   96  A    between atoms: _231  and  _232
REMARK   97  A    between atoms: _235  and  _237
REMARK   98  A    between atoms: _237  and  _238
REMARK   99  A    between atoms: _237  and  _240
REMARK  100  A    between atoms: _240  and  _241
REMARK  101  A    between atoms: _244  and  _246
REMARK  102  A    between atoms: _246  and  _247
REMARK  103  A    between atoms: _246  and  _249
REMARK  104  A    between atoms: _249  and  _250
REMARK  105  A    between atoms: _253  and  _255
REMARK  106  A    between atoms: _255  and  _256
REMARK  107  A    between atoms: _255  and  _258
REMARK  108  A    between atoms: _258  and  _259
REMARK  109  A    between atoms: _259  and  _260
REMARK  110  A    between atoms: _263  and  _265
REMARK  111  A    between atoms: _265  and  _266
REMARK  112  A    between atoms: _265  and  _268
REMARK  113  A    between atoms: _268  and  _269
REMARK  114  A    between atoms: _269  and  _270
REMARK  115  A    between atoms: _270  and  _271
REMARK  116  A    between atoms: _281  and  _282
REMARK  117  A    between atoms: _287  and  _289
REMARK  118  A    between atoms: _289  and  _290
REMARK  119  A    between atoms: _289  and  _292
REMARK  120  A    between atoms: _292  and  _293
REMARK  121  A    between atoms: _293  and  _294
REMARK  122  A    between atoms: _297  and  _299
REMARK  123  A    between atoms: _299  and  _300
REMARK  124  A    between atoms: _299  and  _302
REMARK  125  A    between atoms: _305  and  _307
REMARK  126  A    between atoms: _307  and  _308
REMARK  127  A    between atoms: _307  and  _310
REMARK  128  A    between atoms: _310  and  _311
REMARK  129  A    between atoms: _311  and  _312
REMARK  130  A    between atoms: _317  and  _319
REMARK  131  A    between atoms: _319  and  _320
REMARK  132  A    between atoms: _319  and  _322
REMARK  133  A    between atoms: _322  and  _323
REMARK  134  A    between atoms: _326  and  _328
REMARK  135  A    between atoms: _328  and  _329
REMARK  136  A    between atoms: _328  and  _331
REMARK  137  A    between atoms: _331  and  _332
REMARK  138  A    between atoms: _338  and  _340
REMARK  139  A    between atoms: _340  and  _341
REMARK  140  A    between atoms: _340  and  _343
REMARK  141  A    between atoms: _343  and  _344
REMARK  142  A    between atoms: _347  and  _349
REMARK  143  A    between atoms: _349  and  _350
REMARK  144  A    between atoms: _349  and  _352
REMARK  145  A    between atoms: _352  and  _353
REMARK  146  A    between atoms: _353  and  _354
REMARK  147  A    between atoms: _354  and  _355
REMARK  148  A    between atoms: _355  and  _356
REMARK  149  A    between atoms: _360  and  _362
REMARK  150  A    between atoms: _362  and  _363
REMARK  151  A    between atoms: _362  and  _365
REMARK  152  A    between atoms: _365  and  _366
REMARK  153  A    between atoms: _369  and  _371
REMARK  154  A    between atoms: _371  and  _372
REMARK  155  A    between atoms: _371  and  _374
REMARK  156  A    between atoms: _374  and  _375
REMARK  157  A    between atoms: _375  and  _376
REMARK  158  A    between atoms: _379  and  _381
REMARK  159  A    between atoms: _381  and  _382
REMARK  160  A    between atoms: _381  and  _384
REMARK  161  A    between atoms: _384  and  _385
REMARK  162  A    between atoms: _390  and  _392
REMARK  163  A    between atoms: _392  and  _393
REMARK  164  A    between atoms: _392  and  _395
REMARK  165  A    between atoms: _395  and  _396
REMARK  166  A    between atoms: _399  and  _401
REMARK  167  A    between atoms: _401  and  _402
REMARK  168  A    between atoms: _401  and  _404
REMARK  169  A    between atoms: _404  and  _405
REMARK  170  A    between atoms: _408  and  _410
REMARK  171  A    between atoms: _410  and  _411
REMARK  172  A    between atoms: _410  and  _413
REMARK  173  A    between atoms: _413  and  _414
REMARK  174  A    between atoms: _417  and  _419
REMARK  175  A    between atoms: _419  and  _420
REMARK  176  A    between atoms: _419  and  _422
REMARK  177  A    between atoms: _422  and  _423
REMARK  178  A    between atoms: _423  and  _424
REMARK  179  A    between atoms: _424  and  _425
REMARK  180  A    between atoms: _425  and  _426
REMARK  181  A    between atoms: _430  and  _432
REMARK  182  A    between atoms: _432  and  _433
REMARK  183  A    between atoms: _432  and  _435
REMARK  184  A    between atoms: _435  and  _436
REMARK  185  A    between atoms: _439  and  _441
REMARK  186  A    between atoms: _441  and  _442
REMARK  187  A    between atoms: _441  and  _444
REMARK  188  A    between atoms: _444  and  _445
REMARK  189  A    between atoms: _448  and  _450
REMARK  190  A    between atoms: _450  and  _451
REMARK  191  A    between atoms: _450  and  _453
REMARK  192  A    between atoms: _453  and  _454
REMARK  193  A    between atoms: _457  and  _459
REMARK  194  A    between atoms: _459  and  _460
REMARK  195  A    between atoms: _459  and  _462
REMARK  196  A    between atoms: _462  and  _463
REMARK  197  A    between atoms: _469  and  _471
REMARK  198  A    between atoms: _471  and  _472
REMARK  199  A    between atoms: _474  and  _476
REMARK  200  A    between atoms: _476  and  _477
REMARK  201  A    between atoms: _476  and  _479
REMARK  202  A    between atoms: _479  and  _480
REMARK                            x       y       z     vdW  Elec       q    Type
REMARK                         _______ _______ _______ _____ _____    ______ ____
ROOT
ATOM      1  O   HOH     1     -28.052 -40.433   1.809  0.00  0.00    +0.000 OA
ENDROOT
TORSDOF 0
REMARK  Name = ../refined-set-2016/1xws/1xws_pocket.pdb
REMARK  202 active torsions:
REMARK  status: ('A' for Active; 'I' for Inactive)
REMARK    1  A    between atoms: _1  and  _3
REMARK    2  A    between atoms: _3  and  _4
REMARK    3  A    between atoms: _3  and  _6
REMARK    4  A    between atoms: _6  and  _7
REMARK    5  A    between atoms: _10  and  _12
REMARK    6  A    between atoms: _12  and  _13
REMARK    7  A    between atoms: _12  and  _15
REMARK    8  A    between atoms: _15  and  _16
REMARK    9  A    between atoms: _19  and  _21
REMARK   10  A    between atoms: _21  and  _22
REMARK   11  A    between atoms: _24  and  _26
REMARK   12  A    between atoms: _26  and  _27
REMARK   13  A    between atoms: _26  and  _29
REMARK   14  A    between atoms: _29  and  _30
REMARK   15  A    between atoms: _32  and  _34
REMARK   16  A    between atoms: _34  and  _35
REMARK   17  A    between atoms: _37  and  _39
REMARK   18  A    between atoms: _39  and  _40
REMARK   19  A    between atoms: _42  and  _44
REMARK   20  A    between atoms: _44  and  _45
REMARK   21  A    between atoms: _44  and  _47
REMARK   22  A    between atoms: _47  and  _48
REMARK   23  A    between atoms: _54  and  _56
REMARK   24  A    between atoms: _56  and  _57
REMARK   25  A    between atoms: _59  and  _61
REMARK   26  A    between atoms: _61  and  _62
REMARK   27  A    between atoms: _61  and  _64
REMARK   28  A    between atoms: _64  and  _65
REMARK   29  A    between atoms: _67  and  _69
REMARK   30  A    between atoms: _69  and  _70
REMARK   31  A    between atoms: _69  and  _72
REMARK   32  A    between atoms: _75  and  _77
REMARK   33  A    between atoms: _77  and  _78
REMARK   34  A    between atoms: _77  and  _80
REMARK   35  A    between atoms: _80  and  _81
REMARK   36  A    between atoms: _86  and  _87
REMARK   37  A    between atoms: _89  and  _91
REMARK   38  A    between atoms: _91  and  _92
REMARK   39  A    between atoms: _91  and  _94
REMARK   40  A    between atoms: _94  and  _95
REMARK   41  A    between atoms: _97  and  _99
REMARK   42  A    between atoms: _99  and  _100
REMARK   43  A    between atoms: _103  and  _104
REMARK   44  A    between atoms: _109  and  _111
REMARK   45  A    between atoms: _111  and  _112
REMARK   46  A    between atoms: _111  and  _114
REMARK   47  A    between atoms: _117  and  _119
REMARK   48  A    between atoms: _119  and  _120
REMARK   49  A    between atoms: _123  and  _125
REMARK   50  A    between atoms: _125  and  _126
REMARK   51  A    between atoms: _125  and  _128
REMARK   52  A    between atoms: _128  and  _129
REMARK   53  A    between atoms: _132  and  _134
REMARK   54  A    between atoms: _134  and  _135
REMARK   55  A    between atoms: _134  and  _137
REMARK   56  A    between atoms: _137  and  _138
REMARK   57  A    between atoms: _138  and  _139
REMARK   58  A    between atoms: _139  and  _140
REMARK   59  A    between atoms: _140  and  _141
REMARK   60  A    between atoms: _145  and  _147
REMARK   61  A    between atoms: _147  and  _148
REMARK   62  A    between atoms: _147  and  _150
REMARK   63  A    between atoms: _150  and  _151
REMARK   64  A    between atoms: _156  and  _158
REMARK   65  A    between atoms: _158  and  _159
REMARK   66  A    between atoms: _158  and  _161
REMARK   67  A    between atoms: _164  and  _166
REMARK   68  A    between atoms: _166  and  _167
REMARK   69  A    between atoms: _166  and  _169
REMARK   70  A    between atoms: _169  and  _170
REMARK   71  A    between atoms: _170  and  _171
REMARK   72  A    between atoms: _174  and  _176
REMARK   73  A    between atoms: _176  and  _177
REMARK   74  A    between atoms: _176  and  _179
REMARK   75  A    between atoms: _179  and  _180
REMARK   76  A    between atoms: _183  and  _185
REMARK   77  A    between atoms: _185  and  _186
REMARK   78  A    between atoms: _185  and  _188
REMARK   79  A    between atoms: _191  and  _193
REMARK   80  A    between atoms: _193  and  _194
REMARK   81  A    between atoms: _193  and  _196
REMARK   82  A    between atoms: _196  and  _197
REMARK   83  A    between atoms: _200  and  _202
REMARK   84  A    between atoms: _202  and  _203
REMARK   85  A    between atoms: _202  and  _205
REMARK   86  A    between atoms: _205  and  _206
REMARK   87  A    between atoms: _206  and  _207
REMARK   88  A    between atoms: _207  and  _208
REMARK   89  A    between atoms: _217  and  _219
REMARK   90  A    between atoms: _219  and  _220
REMARK   91  A    between atoms: _219  and  _222
REMARK   92  A    between atoms: _222  and  _223
REMARK   93  A    between atoms: _226  and  _228
REMARK   94  A    between atoms: _228  and  _229
REMARK   95  A    between atoms: _228  and  _231
REMARK   96  A    between atoms: _231  and  _232
REMARK   97  A    between atoms: _235  and  _237
REMARK   98  A    between atoms: _237  and  _238
REMARK   99  A    between atoms: _237  and  _240
REMARK  100  A    between atoms: _240  and  _241
REMARK  101  A    between atoms: _244  and  _246
REMARK  102  A    between atoms: _246  and  _247
REMARK  103  A    between atoms: _246  and  _249
REMARK  104  A    between atoms: _249  and  _250
REMARK  105  A    between atoms: _253  and  _255
REMARK  106  A    between atoms: _255  and  _256
REMARK  107  A    between atoms: _255  and  _258
REMARK  108  A    between atoms: _258  and  _259
REMARK  109  A    between atoms: _259  and  _260
REMARK  110  A    between atoms: _263  and  _265
REMARK  111  A    between atoms: _265  and  _266
REMARK  112  A    between atoms: _265  and  _268
REMARK  113  A    between atoms: _268  and  _269
REMARK  114  A    between atoms: _269  and  _270
REMARK  115  A    between atoms: _270  and  _271
REMARK  116  A    between atoms: _281  and  _282
REMARK  117  A    between atoms: _287  and  _289
REMARK  118  A    between atoms: _289  and  _290
REMARK  119  A    between atoms: _289  and  _292
REMARK  120  A    between atoms: _292  and  _293
REMARK  121  A    between atoms: _293  and  _294
REMARK  122  A    between atoms: _297  and  _299
REMARK  123  A    between atoms: _299  and  _300
REMARK  124  A    between atoms: _299  and  _302
REMARK  125  A    between atoms: _305  and  _307
REMARK  126  A    between atoms: _307  and  _308
REMARK  127  A    between atoms: _307  and  _310
REMARK  128  A    between atoms: _310  and  _311
REMARK  129  A    between atoms: _311  and  _312
REMARK  130  A    between atoms: _317  and  _319
REMARK  131  A    between atoms: _319  and  _320
REMARK  132  A    between atoms: _319  and  _322
REMARK  133  A    between atoms: _322  and  _323
REMARK  134  A    between atoms: _326  and  _328
REMARK  135  A    between atoms: _328  and  _329
REMARK  136  A    between atoms: _328  and  _331
REMARK  137  A    between atoms: _331  and  _332
REMARK  138  A    between atoms: _338  and  _340
REMARK  139  A    between atoms: _340  and  _341
REMARK  140  A    between atoms: _340  and  _343
REMARK  141  A    between atoms: _343  and  _344
REMARK  142  A    between atoms: _347  and  _349
REMARK  143  A    between atoms: _349  and  _350
REMARK  144  A    between atoms: _349  and  _352
REMARK  145  A    between atoms: _352  and  _353
REMARK  146  A    between atoms: _353  and  _354
REMARK  147  A    between atoms: _354  and  _355
REMARK  148  A    between atoms: _355  and  _356
REMARK  149  A    between atoms: _360  and  _362
REMARK  150  A    between atoms: _362  and  _363
REMARK  151  A    between atoms: _362  and  _365
REMARK  152  A    between atoms: _365  and  _366
REMARK  153  A    between atoms: _369  and  _371
REMARK  154  A    between atoms: _371  and  _372
REMARK  155  A    between atoms: _371  and  _374
REMARK  156  A    between atoms: _374  and  _375
REMARK  157  A    between atoms: _375  and  _376
REMARK  158  A    between atoms: _379  and  _381
REMARK  159  A    between atoms: _381  and  _382
REMARK  160  A    between atoms: _381  and  _384
REMARK  161  A    between atoms: _384  and  _385
REMARK  162  A    between atoms: _390  and  _392
REMARK  163  A    between atoms: _392  and  _393
REMARK  164  A    between atoms: _392  and  _395
REMARK  165  A    between atoms: _395  and  _396
REMARK  166  A    between atoms: _399  and  _401
REMARK  167  A    between atoms: _401  and  _402
REMARK  168  A    between atoms: _401  and  _404
REMARK  169  A    between atoms: _404  and  _405
REMARK  170  A    between atoms: _408  and  _410
REMARK  171  A    between atoms: _410  and  _411
REMARK  172  A    between atoms: _410  and  _413
REMARK  173  A    between atoms: _413  and  _414
REMARK  174  A    between atoms: _417  and  _419
REMARK  175  A    between atoms: _419  and  _420
REMARK  176  A    between atoms: _419  and  _422
REMARK  177  A    between atoms: _422  and  _423
REMARK  178  A    between atoms: _423  and  _424
REMARK  179  A    between atoms: _424  and  _425
REMARK  180  A    between atoms: _425  and  _426
REMARK  181  A    between atoms: _430  and  _432
REMARK  182  A    between atoms: _432  and  _433
REMARK  183  A    between atoms: _432  and  _435
REMARK  184  A    between atoms: _435  and  _436
REMARK  185  A    between atoms: _439  and  _441
REMARK  186  A    between atoms: _441  and  _442
REMARK  187  A    between atoms: _441  and  _444
REMARK  188  A    between atoms: _444  and  _445
REMARK  189  A    between atoms: _448  and  _450
REMARK  190  A    between atoms: _450  and  _451
REMARK  191  A    between atoms: _450  and  _453
REMARK  192  A    between atoms: _453  and  _454
REMARK  193  A    between atoms: _457  and  _459
REMARK  194  A    between atoms: _459  and  _460
REMARK  195  A    between atoms: _459  and  _462
REMARK  196  A    between atoms: _462  and  _463
REMARK  197  A    between atoms: _469  and  _471
REMARK  198  A    between atoms: _471  and  _472
REMARK  199  A    between atoms: _474  and  _476
REMARK  200  A    between atoms: _476  and  _477
REMARK  201  A    between atoms: _476  and  _479
REMARK  202  A    between atoms: _479  and  _480
REMARK                            x       y       z     vdW  Elec       q    Type
REMARK                         _______ _______ _______ _____ _____    ______ ____
ROOT
ATOM      1  O   HOH     1     -11.279 -29.156  -1.694  0.00  0.00    +0.000 OA
ENDROOT
TORSDOF 0
REMARK  Name = ../refined-set-2016/1xws/1xws_pocket.pdb
REMARK  202 active torsions:
REMARK  status: ('A' for Active; 'I' for Inactive)
REMARK    1  A    between atoms: _1  and  _3
REMARK    2  A    between atoms: _3  and  _4
REMARK    3  A    between atoms: _3  and  _6
REMARK    4  A    between atoms: _6  and  _7
REMARK    5  A    between atoms: _10  and  _12
REMARK    6  A    between atoms: _12  and  _13
REMARK    7  A    between atoms: _12  and  _15
REMARK    8  A    between atoms: _15  and  _16
REMARK    9  A    between atoms: _19  and  _21
REMARK   10  A    between atoms: _21  and  _22
REMARK   11  A    between atoms: _24  and  _26
REMARK   12  A    between atoms: _26  and  _27
REMARK   13  A    between atoms: _26  and  _29
REMARK   14  A    between atoms: _29  and  _30
REMARK   15  A    between atoms: _32  and  _34
REMARK   16  A    between atoms: _34  and  _35
REMARK   17  A    between atoms: _37  and  _39
REMARK   18  A    between atoms: _39  and  _40
REMARK   19  A    between atoms: _42  and  _44
REMARK   20  A    between atoms: _44  and  _45
REMARK   21  A    between atoms: _44  and  _47
REMARK   22  A    between atoms: _47  and  _48
REMARK   23  A    between atoms: _54  and  _56
REMARK   24  A    between atoms: _56  and  _57
REMARK   25  A    between atoms: _59  and  _61
REMARK   26  A    between atoms: _61  and  _62
REMARK   27  A    between atoms: _61  and  _64
REMARK   28  A    between atoms: _64  and  _65
REMARK   29  A    between atoms: _67  and  _69
REMARK   30  A    between atoms: _69  and  _70
REMARK   31  A    between atoms: _69  and  _72
REMARK   32  A    between atoms: _75  and  _77
REMARK   33  A    between atoms: _77  and  _78
REMARK   34  A    between atoms: _77  and  _80
REMARK   35  A    between atoms: _80  and  _81
REMARK   36  A    between atoms: _86  and  _87
REMARK   37  A    between atoms: _89  and  _91
REMARK   38  A    between atoms: _91  and  _92
REMARK   39  A    between atoms: _91  and  _94
REMARK   40  A    between atoms: _94  and  _95
REMARK   41  A    between atoms: _97  and  _99
REMARK   42  A    between atoms: _99  and  _100
REMARK   43  A    between atoms: _103  and  _104
REMARK   44  A    between atoms: _109  and  _111
REMARK   45  A    between atoms: _111  and  _112
REMARK   46  A    between atoms: _111  and  _114
REMARK   47  A    between atoms: _117  and  _119
REMARK   48  A    between atoms: _119  and  _120
REMARK   49  A    between atoms: _123  and  _125
REMARK   50  A    between atoms: _125  and  _126
REMARK   51  A    between atoms: _125  and  _128
REMARK   52  A    between atoms: _128  and  _129
REMARK   53  A    between atoms: _132  and  _134
REMARK   54  A    between atoms: _134  and  _135
REMARK   55  A    between atoms: _134  and  _137
REMARK   56  A    between atoms: _137  and  _138
REMARK   57  A    between atoms: _138  and  _139
REMARK   58  A    between atoms: _139  and  _140
REMARK   59  A    between atoms: _140  and  _141
REMARK   60  A    between atoms: _145  and  _147
REMARK   61  A    between atoms: _147  and  _148
REMARK   62  A    between atoms: _147  and  _150
REMARK   63  A    between atoms: _150  and  _151
REMARK   64  A    between atoms: _156  and  _158
REMARK   65  A    between atoms: _158  and  _159
REMARK   66  A    between atoms: _158  and  _161
REMARK   67  A    between atoms: _164  and  _166
REMARK   68  A    between atoms: _166  and  _167
REMARK   69  A    between atoms: _166  and  _169
REMARK   70  A    between atoms: _169  and  _170
REMARK   71  A    between atoms: _170  and  _171
REMARK   72  A    between atoms: _174  and  _176
REMARK   73  A    between atoms: _176  and  _177
REMARK   74  A    between atoms: _176  and  _179
REMARK   75  A    between atoms: _179  and  _180
REMARK   76  A    between atoms: _183  and  _185
REMARK   77  A    between atoms: _185  and  _186
REMARK   78  A    between atoms: _185  and  _188
REMARK   79  A    between atoms: _191  and  _193
REMARK   80  A    between atoms: _193  and  _194
REMARK   81  A    between atoms: _193  and  _196
REMARK   82  A    between atoms: _196  and  _197
REMARK   83  A    between atoms: _200  and  _202
REMARK   84  A    between atoms: _202  and  _203
REMARK   85  A    between atoms: _202  and  _205
REMARK   86  A    between atoms: _205  and  _206
REMARK   87  A    between atoms: _206  and  _207
REMARK   88  A    between atoms: _207  and  _208
REMARK   89  A    between atoms: _217  and  _219
REMARK   90  A    between atoms: _219  and  _220
REMARK   91  A    between atoms: _219  and  _222
REMARK   92  A    between atoms: _222  and  _223
REMARK   93  A    between atoms: _226  and  _228
REMARK   94  A    between atoms: _228  and  _229
REMARK   95  A    between atoms: _228  and  _231
REMARK   96  A    between atoms: _231  and  _232
REMARK   97  A    between atoms: _235  and  _237
REMARK   98  A    between atoms: _237  and  _238
REMARK   99  A    between atoms: _237  and  _240
REMARK  100  A    between atoms: _240  and  _241
REMARK  101  A    between atoms: _244  and  _246
REMARK  102  A    between atoms: _246  and  _247
REMARK  103  A    between atoms: _246  and  _249
REMARK  104  A    between atoms: _249  and  _250
REMARK  105  A    between atoms: _253  and  _255
REMARK  106  A    between atoms: _255  and  _256
REMARK  107  A    between atoms: _255  and  _258
REMARK  108  A    between atoms: _258  and  _259
REMARK  109  A    between atoms: _259  and  _260
REMARK  110  A    between atoms: _263  and  _265
REMARK  111  A    between atoms: _265  and  _266
REMARK  112  A    between atoms: _265  and  _268
REMARK  113  A    between atoms: _268  and  _269
REMARK  114  A    between atoms: _269  and  _270
REMARK  115  A    between atoms: _270  and  _271
REMARK  116  A    between atoms: _281  and  _282
REMARK  117  A    between atoms: _287  and  _289
REMARK  118  A    between atoms: _289  and  _290
REMARK  119  A    between atoms: _289  and  _292
REMARK  120  A    between atoms: _292  and  _293
REMARK  121  A    between atoms: _293  and  _294
REMARK  122  A    between atoms: _297  and  _299
REMARK  123  A    between atoms: _299  and  _300
REMARK  124  A    between atoms: _299  and  _302
REMARK  125  A    between atoms: _305  and  _307
REMARK  126  A    between atoms: _307  and  _308
REMARK  127  A    between atoms: _307  and  _310
REMARK  128  A    between atoms: _310  and  _311
REMARK  129  A    between atoms: _311  and  _312
REMARK  130  A    between atoms: _317  and  _319
REMARK  131  A    between atoms: _319  and  _320
REMARK  132  A    between atoms: _319  and  _322
REMARK  133  A    between atoms: _322  and  _323
REMARK  134  A    between atoms: _326  and  _328
REMARK  135  A    between atoms: _328  and  _329
REMARK  136  A    between atoms: _328  and  _331
REMARK  137  A    between atoms: _331  and  _332
REMARK  138  A    between atoms: _338  and  _340
REMARK  139  A    between atoms: _340  and  _341
REMARK  140  A    between atoms: _340  and  _343
REMARK  141  A    between atoms: _343  and  _344
REMARK  142  A    between atoms: _347  and  _349
REMARK  143  A    between atoms: _349  and  _350
REMARK  144  A    between atoms: _349  and  _352
REMARK  145  A    between atoms: _352  and  _353
REMARK  146  A    between atoms: _353  and  _354
REMARK  147  A    between atoms: _354  and  _355
REMARK  148  A    between atoms: _355  and  _356
REMARK  149  A    between atoms: _360  and  _362
REMARK  150  A    between atoms: _362  and  _363
REMARK  151  A    between atoms: _362  and  _365
REMARK  152  A    between atoms: _365  and  _366
REMARK  153  A    between atoms: _369  and  _371
REMARK  154  A    between atoms: _371  and  _372
REMARK  155  A    between atoms: _371  and  _374
REMARK  156  A    between atoms: _374  and  _375
REMARK  157  A    between atoms: _375  and  _376
REMARK  158  A    between atoms: _379  and  _381
REMARK  159  A    between atoms: _381  and  _382
REMARK  160  A    between atoms: _381  and  _384
REMARK  161  A    between atoms: _384  and  _385
REMARK  162  A    between atoms: _390  and  _392
REMARK  163  A    between atoms: _392  and  _393
REMARK  164  A    between atoms: _392  and  _395
REMARK  165  A    between atoms: _395  and  _396
REMARK  166  A    between atoms: _399  and  _401
REMARK  167  A    between atoms: _401  and  _402
REMARK  168  A    between atoms: _401  and  _404
REMARK  169  A    between atoms: _404  and  _405
REMARK  170  A    between atoms: _408  and  _410
REMARK  171  A    between atoms: _410  and  _411
REMARK  172  A    between atoms: _410  and  _413
REMARK  173  A    between atoms: _413  and  _414
REMARK  174  A    between atoms: _417  and  _419
REMARK  175  A    between atoms: _419  and  _420
REMARK  176  A    between atoms: _419  and  _422
REMARK  177  A    between atoms: _422  and  _423
REMARK  178  A    between atoms: _423  and  _424
REMARK  179  A    between atoms: _424  and  _425
REMARK  180  A    between atoms: _425  and  _426
REMARK  181  A    between atoms: _430  and  _432
REMARK  182  A    between atoms: _432  and  _433
REMARK  183  A    between atoms: _432  and  _435
REMARK  184  A    between atoms: _435  and  _436
REMARK  185  A    between atoms: _439  and  _441
REMARK  186  A    between atoms: _441  and  _442
REMARK  187  A    between atoms: _441  and  _444
REMARK  188  A    between atoms: _444  and  _445
REMARK  189  A    between atoms: _448  and  _450
REMARK  190  A    between atoms: _450  and  _451
REMARK  191  A    between atoms: _450  and  _453
REMARK  192  A    between atoms: _453  and  _454
REMARK  193  A    between atoms: _457  and  _459
REMARK  194  A    between atoms: _459  and  _460
REMARK  195  A    between atoms: _459  and  _462
REMARK  196  A    between atoms: _462  and  _463
REMARK  197  A    between atoms: _469  and  _471
REMARK  198  A    between atoms: _471  and  _472
REMARK  199  A    between atoms: _474  and  _476
REMARK  200  A    between atoms: _476  and  _477
REMARK  201  A    between atoms: _476  and  _479
REMARK  202  A    between atoms: _479  and  _480
REMARK                            x       y       z     vdW  Elec       q    Type
REMARK                         _______ _______ _______ _____ _____    ______ ____
ROOT
ATOM      1  O   HOH     1     -25.339 -41.485   1.866  0.00  0.00    +0.000 OA
ENDROOT
TORSDOF 0
REMARK  Name = ../refined-set-2016/1xws/1xws_pocket.pdb
REMARK  202 active torsions:
REMARK  status: ('A' for Active; 'I' for Inactive)
REMARK    1  A    between atoms: _1  and  _3
REMARK    2  A    between atoms: _3  and  _4
REMARK    3  A    between atoms: _3  and  _6
REMARK    4  A    between atoms: _6  and  _7
REMARK    5  A    between atoms: _10  and  _12
REMARK    6  A    between atoms: _12  and  _13
REMARK    7  A    between atoms: _12  and  _15
REMARK    8  A    between atoms: _15  and  _16
REMARK    9  A    between atoms: _19  and  _21
REMARK   10  A    between atoms: _21  and  _22
REMARK   11  A    between atoms: _24  and  _26
REMARK   12  A    between atoms: _26  and  _27
REMARK   13  A    between atoms: _26  and  _29
REMARK   14  A    between atoms: _29  and  _30
REMARK   15  A    between atoms: _32  and  _34
REMARK   16  A    between atoms: _34  and  _35
REMARK   17  A    between atoms: _37  and  _39
REMARK   18  A    between atoms: _39  and  _40
REMARK   19  A    between atoms: _42  and  _44
REMARK   20  A    between atoms: _44  and  _45
REMARK   21  A    between atoms: _44  and  _47
REMARK   22  A    between atoms: _47  and  _48
REMARK   23  A    between atoms: _54  and  _56
REMARK   24  A    between atoms: _56  and  _57
REMARK   25  A    between atoms: _59  and  _61
REMARK   26  A    between atoms: _61  and  _62
REMARK   27  A    between atoms: _61  and  _64
REMARK   28  A    between atoms: _64  and  _65
REMARK   29  A    between atoms: _67  and  _69
REMARK   30  A    between atoms: _69  and  _70
REMARK   31  A    between atoms: _69  and  _72
REMARK   32  A    between atoms: _75  and  _77
REMARK   33  A    between atoms: _77  and  _78
REMARK   34  A    between atoms: _77  and  _80
REMARK   35  A    between atoms: _80  and  _81
REMARK   36  A    between atoms: _86  and  _87
REMARK   37  A    between atoms: _89  and  _91
REMARK   38  A    between atoms: _91  and  _92
REMARK   39  A    between atoms: _91  and  _94
REMARK   40  A    between atoms: _94  and  _95
REMARK   41  A    between atoms: _97  and  _99
REMARK   42  A    between atoms: _99  and  _100
REMARK   43  A    between atoms: _103  and  _104
REMARK   44  A    between atoms: _109  and  _111
REMARK   45  A    between atoms: _111  and  _112
REMARK   46  A    between atoms: _111  and  _114
REMARK   47  A    between atoms: _117  and  _119
REMARK   48  A    between atoms: _119  and  _120
REMARK   49  A    between atoms: _123  and  _125
REMARK   50  A    between atoms: _125  and  _126
REMARK   51  A    between atoms: _125  and  _128
REMARK   52  A    between atoms: _128  and  _129
REMARK   53  A    between atoms: _132  and  _134
REMARK   54  A    between atoms: _134  and  _135
REMARK   55  A    between atoms: _134  and  _137
REMARK   56  A    between atoms: _137  and  _138
REMARK   57  A    between atoms: _138  and  _139
REMARK   58  A    between atoms: _139  and  _140
REMARK   59  A    between atoms: _140  and  _141
REMARK   60  A    between atoms: _145  and  _147
REMARK   61  A    between atoms: _147  and  _148
REMARK   62  A    between atoms: _147  and  _150
REMARK   63  A    between atoms: _150  and  _151
REMARK   64  A    between atoms: _156  and  _158
REMARK   65  A    between atoms: _158  and  _159
REMARK   66  A    between atoms: _158  and  _161
REMARK   67  A    between atoms: _164  and  _166
REMARK   68  A    between atoms: _166  and  _167
REMARK   69  A    between atoms: _166  and  _169
REMARK   70  A    between atoms: _169  and  _170
REMARK   71  A    between atoms: _170  and  _171
REMARK   72  A    between atoms: _174  and  _176
REMARK   73  A    between atoms: _176  and  _177
REMARK   74  A    between atoms: _176  and  _179
REMARK   75  A    between atoms: _179  and  _180
REMARK   76  A    between atoms: _183  and  _185
REMARK   77  A    between atoms: _185  and  _186
REMARK   78  A    between atoms: _185  and  _188
REMARK   79  A    between atoms: _191  and  _193
REMARK   80  A    between atoms: _193  and  _194
REMARK   81  A    between atoms: _193  and  _196
REMARK   82  A    between atoms: _196  and  _197
REMARK   83  A    between atoms: _200  and  _202
REMARK   84  A    between atoms: _202  and  _203
REMARK   85  A    between atoms: _202  and  _205
REMARK   86  A    between atoms: _205  and  _206
REMARK   87  A    between atoms: _206  and  _207
REMARK   88  A    between atoms: _207  and  _208
REMARK   89  A    between atoms: _217  and  _219
REMARK   90  A    between atoms: _219  and  _220
REMARK   91  A    between atoms: _219  and  _222
REMARK   92  A    between atoms: _222  and  _223
REMARK   93  A    between atoms: _226  and  _228
REMARK   94  A    between atoms: _228  and  _229
REMARK   95  A    between atoms: _228  and  _231
REMARK   96  A    between atoms: _231  and  _232
REMARK   97  A    between atoms: _235  and  _237
REMARK   98  A    between atoms: _237  and  _238
REMARK   99  A    between atoms: _237  and  _240
REMARK  100  A    between atoms: _240  and  _241
REMARK  101  A    between atoms: _244  and  _246
REMARK  102  A    between atoms: _246  and  _247
REMARK  103  A    between atoms: _246  and  _249
REMARK  104  A    between atoms: _249  and  _250
REMARK  105  A    between atoms: _253  and  _255
REMARK  106  A    between atoms: _255  and  _256
REMARK  107  A    between atoms: _255  and  _258
REMARK  108  A    between atoms: _258  and  _259
REMARK  109  A    between atoms: _259  and  _260
REMARK  110  A    between atoms: _263  and  _265
REMARK  111  A    between atoms: _265  and  _266
REMARK  112  A    between atoms: _265  and  _268
REMARK  113  A    between atoms: _268  and  _269
REMARK  114  A    between atoms: _269  and  _270
REMARK  115  A    between atoms: _270  and  _271
REMARK  116  A    between atoms: _281  and  _282
REMARK  117  A    between atoms: _287  and  _289
REMARK  118  A    between atoms: _289  and  _290
REMARK  119  A    between atoms: _289  and  _292
REMARK  120  A    between atoms: _292  and  _293
REMARK  121  A    between atoms: _293  and  _294
REMARK  122  A    between atoms: _297  and  _299
REMARK  123  A    between atoms: _299  and  _300
REMARK  124  A    between atoms: _299  and  _302
REMARK  125  A    between atoms: _305  and  _307
REMARK  126  A    between atoms: _307  and  _308
REMARK  127  A    between atoms: _307  and  _310
REMARK  128  A    between atoms: _310  and  _311
REMARK  129  A    between atoms: _311  and  _312
REMARK  130  A    between atoms: _317  and  _319
REMARK  131  A    between atoms: _319  and  _320
REMARK  132  A    between atoms: _319  and  _322
REMARK  133  A    between atoms: _322  and  _323
REMARK  134  A    between atoms: _326  and  _328
REMARK  135  A    between atoms: _328  and  _329
REMARK  136  A    between atoms: _328  and  _331
REMARK  137  A    between atoms: _331  and  _332
REMARK  138  A    between atoms: _338  and  _340
REMARK  139  A    between atoms: _340  and  _341
REMARK  140  A    between atoms: _340  and  _343
REMARK  141  A    between atoms: _343  and  _344
REMARK  142  A    between atoms: _347  and  _349
REMARK  143  A    between atoms: _349  and  _350
REMARK  144  A    between atoms: _349  and  _352
REMARK  145  A    between atoms: _352  and  _353
REMARK  146  A    between atoms: _353  and  _354
REMARK  147  A    between atoms: _354  and  _355
REMARK  148  A    between atoms: _355  and  _356
REMARK  149  A    between atoms: _360  and  _362
REMARK  150  A    between atoms: _362  and  _363
REMARK  151  A    between atoms: _362  and  _365
REMARK  152  A    between atoms: _365  and  _366
REMARK  153  A    between atoms: _369  and  _371
REMARK  154  A    between atoms: _371  and  _372
REMARK  155  A    between atoms: _371  and  _374
REMARK  156  A    between atoms: _374  and  _375
REMARK  157  A    between atoms: _375  and  _376
REMARK  158  A    between atoms: _379  and  _381
REMARK  159  A    between atoms: _381  and  _382
REMARK  160  A    between atoms: _381  and  _384
REMARK  161  A    between atoms: _384  and  _385
REMARK  162  A    between atoms: _390  and  _392
REMARK  163  A    between atoms: _392  and  _393
REMARK  164  A    between atoms: _392  and  _395
REMARK  165  A    between atoms: _395  and  _396
REMARK  166  A    between atoms: _399  and  _401
REMARK  167  A    between atoms: _401  and  _402
REMARK  168  A    between atoms: _401  and  _404
REMARK  169  A    between atoms: _404  and  _405
REMARK  170  A    between atoms: _408  and  _410
REMARK  171  A    between atoms: _410  and  _411
REMARK  172  A    between atoms: _410  and  _413
REMARK  173  A    between atoms: _413  and  _414
REMARK  174  A    between atoms: _417  and  _419
REMARK  175  A    between atoms: _419  and  _420
REMARK  176  A    between atoms: _419  and  _422
REMARK  177  A    between atoms: _422  and  _423
REMARK  178  A    between atoms: _423  and  _424
REMARK  179  A    between atoms: _424  and  _425
REMARK  180  A    between atoms: _425  and  _426
REMARK  181  A    between atoms: _430  and  _432
REMARK  182  A    between atoms: _432  and  _433
REMARK  183  A    between atoms: _432  and  _435
REMARK  184  A    between atoms: _435  and  _436
REMARK  185  A    between atoms: _439  and  _441
REMARK  186  A    between atoms: _441  and  _442
REMARK  187  A    between atoms: _441  and  _444
REMARK  188  A    between atoms: _444  and  _445
REMARK  189  A    between atoms: _448  and  _450
REMARK  190  A    between atoms: _450  and  _451
REMARK  191  A    between atoms: _450  and  _453
REMARK  192  A    between atoms: _453  and  _454
REMARK  193  A    between atoms: _457  and  _459
REMARK  194  A    between atoms: _459  and  _460
REMARK  195  A    between atoms: _459  and  _462
REMARK  196  A    between atoms: _462  and  _463
REMARK  197  A    between atoms: _469  and  _471
REMARK  198  A    between atoms: _471  and  _472
REMARK  199  A    between atoms: _474  and  _476
REMARK  200  A    between atoms: _476  and  _477
REMARK  201  A    between atoms: _476  and  _479
REMARK  202  A    between atoms: _479  and  _480
REMARK                            x       y       z     vdW  Elec       q    Type
REMARK                         _______ _______ _______ _____ _____    ______ ____
ROOT
ATOM      1  O   HOH     1     -11.426 -31.017   0.282  0.00  0.00    +0.000 OA
ENDROOT
TORSDOF 0
REMARK  Name = ../refined-set-2016/1xws/1xws_pocket.pdb
REMARK  202 active torsions:
REMARK  status: ('A' for Active; 'I' for Inactive)
REMARK    1  A    between atoms: _1  and  _3
REMARK    2  A    between atoms: _3  and  _4
REMARK    3  A    between atoms: _3  and  _6
REMARK    4  A    between atoms: _6  and  _7
REMARK    5  A    between atoms: _10  and  _12
REMARK    6  A    between atoms: _12  and  _13
REMARK    7  A    between atoms: _12  and  _15
REMARK    8  A    between atoms: _15  and  _16
REMARK    9  A    between atoms: _19  and  _21
REMARK   10  A    between atoms: _21  and  _22
REMARK   11  A    between atoms: _24  and  _26
REMARK   12  A    between atoms: _26  and  _27
REMARK   13  A    between atoms: _26  and  _29
REMARK   14  A    between atoms: _29  and  _30
REMARK   15  A    between atoms: _32  and  _34
REMARK   16  A    between atoms: _34  and  _35
REMARK   17  A    between atoms: _37  and  _39
REMARK   18  A    between atoms: _39  and  _40
REMARK   19  A    between atoms: _42  and  _44
REMARK   20  A    between atoms: _44  and  _45
REMARK   21  A    between atoms: _44  and  _47
REMARK   22  A    between atoms: _47  and  _48
REMARK   23  A    between atoms: _54  and  _56
REMARK   24  A    between atoms: _56  and  _57
REMARK   25  A    between atoms: _59  and  _61
REMARK   26  A    between atoms: _61  and  _62
REMARK   27  A    between atoms: _61  and  _64
REMARK   28  A    between atoms: _64  and  _65
REMARK   29  A    between atoms: _67  and  _69
REMARK   30  A    between atoms: _69  and  _70
REMARK   31  A    between atoms: _69  and  _72
REMARK   32  A    between atoms: _75  and  _77
REMARK   33  A    between atoms: _77  and  _78
REMARK   34  A    between atoms: _77  and  _80
REMARK   35  A    between atoms: _80  and  _81
REMARK   36  A    between atoms: _86  and  _87
REMARK   37  A    between atoms: _89  and  _91
REMARK   38  A    between atoms: _91  and  _92
REMARK   39  A    between atoms: _91  and  _94
REMARK   40  A    between atoms: _94  and  _95
REMARK   41  A    between atoms: _97  and  _99
REMARK   42  A    between atoms: _99  and  _100
REMARK   43  A    between atoms: _103  and  _104
REMARK   44  A    between atoms: _109  and  _111
REMARK   45  A    between atoms: _111  and  _112
REMARK   46  A    between atoms: _111  and  _114
REMARK   47  A    between atoms: _117  and  _119
REMARK   48  A    between atoms: _119  and  _120
REMARK   49  A    between atoms: _123  and  _125
REMARK   50  A    between atoms: _125  and  _126
REMARK   51  A    between atoms: _125  and  _128
REMARK   52  A    between atoms: _128  and  _129
REMARK   53  A    between atoms: _132  and  _134
REMARK   54  A    between atoms: _134  and  _135
REMARK   55  A    between atoms: _134  and  _137
REMARK   56  A    between atoms: _137  and  _138
REMARK   57  A    between atoms: _138  and  _139
REMARK   58  A    between atoms: _139  and  _140
REMARK   59  A    between atoms: _140  and  _141
REMARK   60  A    between atoms: _145  and  _147
REMARK   61  A    between atoms: _147  and  _148
REMARK   62  A    between atoms: _147  and  _150
REMARK   63  A    between atoms: _150  and  _151
REMARK   64  A    between atoms: _156  and  _158
REMARK   65  A    between atoms: _158  and  _159
REMARK   66  A    between atoms: _158  and  _161
REMARK   67  A    between atoms: _164  and  _166
REMARK   68  A    between atoms: _166  and  _167
REMARK   69  A    between atoms: _166  and  _169
REMARK   70  A    between atoms: _169  and  _170
REMARK   71  A    between atoms: _170  and  _171
REMARK   72  A    between atoms: _174  and  _176
REMARK   73  A    between atoms: _176  and  _177
REMARK   74  A    between atoms: _176  and  _179
REMARK   75  A    between atoms: _179  and  _180
REMARK   76  A    between atoms: _183  and  _185
REMARK   77  A    between atoms: _185  and  _186
REMARK   78  A    between atoms: _185  and  _188
REMARK   79  A    between atoms: _191  and  _193
REMARK   80  A    between atoms: _193  and  _194
REMARK   81  A    between atoms: _193  and  _196
REMARK   82  A    between atoms: _196  and  _197
REMARK   83  A    between atoms: _200  and  _202
REMARK   84  A    between atoms: _202  and  _203
REMARK   85  A    between atoms: _202  and  _205
REMARK   86  A    between atoms: _205  and  _206
REMARK   87  A    between atoms: _206  and  _207
REMARK   88  A    between atoms: _207  and  _208
REMARK   89  A    between atoms: _217  and  _219
REMARK   90  A    between atoms: _219  and  _220
REMARK   91  A    between atoms: _219  and  _222
REMARK   92  A    between atoms: _222  and  _223
REMARK   93  A    between atoms: _226  and  _228
REMARK   94  A    between atoms: _228  and  _229
REMARK   95  A    between atoms: _228  and  _231
REMARK   96  A    between atoms: _231  and  _232
REMARK   97  A    between atoms: _235  and  _237
REMARK   98  A    between atoms: _237  and  _238
REMARK   99  A    between atoms: _237  and  _240
REMARK  100  A    between atoms: _240  and  _241
REMARK  101  A    between atoms: _244  and  _246
REMARK  102  A    between atoms: _246  and  _247
REMARK  103  A    between atoms: _246  and  _249
REMARK  104  A    between atoms: _249  and  _250
REMARK  105  A    between atoms: _253  and  _255
REMARK  106  A    between atoms: _255  and  _256
REMARK  107  A    between atoms: _255  and  _258
REMARK  108  A    between atoms: _258  and  _259
REMARK  109  A    between atoms: _259  and  _260
REMARK  110  A    between atoms: _263  and  _265
REMARK  111  A    between atoms: _265  and  _266
REMARK  112  A    between atoms: _265  and  _268
REMARK  113  A    between atoms: _268  and  _269
REMARK  114  A    between atoms: _269  and  _270
REMARK  115  A    between atoms: _270  and  _271
REMARK  116  A    between atoms: _281  and  _282
REMARK  117  A    between atoms: _287  and  _289
REMARK  118  A    between atoms: _289  and  _290
REMARK  119  A    between atoms: _289  and  _292
REMARK  120  A    between atoms: _292  and  _293
REMARK  121  A    between atoms: _293  and  _294
REMARK  122  A    between atoms: _297  and  _299
REMARK  123  A    between atoms: _299  and  _300
REMARK  124  A    between atoms: _299  and  _302
REMARK  125  A    between atoms: _305  and  _307
REMARK  126  A    between atoms: _307  and  _308
REMARK  127  A    between atoms: _307  and  _310
REMARK  128  A    between atoms: _310  and  _311
REMARK  129  A    between atoms: _311  and  _312
REMARK  130  A    between atoms: _317  and  _319
REMARK  131  A    between atoms: _319  and  _320
REMARK  132  A    between atoms: _319  and  _322
REMARK  133  A    between atoms: _322  and  _323
REMARK  134  A    between atoms: _326  and  _328
REMARK  135  A    between atoms: _328  and  _329
REMARK  136  A    between atoms: _328  and  _331
REMARK  137  A    between atoms: _331  and  _332
REMARK  138  A    between atoms: _338  and  _340
REMARK  139  A    between atoms: _340  and  _341
REMARK  140  A    between atoms: _340  and  _343
REMARK  141  A    between atoms: _343  and  _344
REMARK  142  A    between atoms: _347  and  _349
REMARK  143  A    between atoms: _349  and  _350
REMARK  144  A    between atoms: _349  and  _352
REMARK  145  A    between atoms: _352  and  _353
REMARK  146  A    between atoms: _353  and  _354
REMARK  147  A    between atoms: _354  and  _355
REMARK  148  A    between atoms: _355  and  _356
REMARK  149  A    between atoms: _360  and  _362
REMARK  150  A    between atoms: _362  and  _363
REMARK  151  A    between atoms: _362  and  _365
REMARK  152  A    between atoms: _365  and  _366
REMARK  153  A    between atoms: _369  and  _371
REMARK  154  A    between atoms: _371  and  _372
REMARK  155  A    between atoms: _371  and  _374
REMARK  156  A    between atoms: _374  and  _375
REMARK  157  A    between atoms: _375  and  _376
REMARK  158  A    between atoms: _379  and  _381
REMARK  159  A    between atoms: _381  and  _382
REMARK  160  A    between atoms: _381  and  _384
REMARK  161  A    between atoms: _384  and  _385
REMARK  162  A    between atoms: _390  and  _392
REMARK  163  A    between atoms: _392  and  _393
REMARK  164  A    between atoms: _392  and  _395
REMARK  165  A    between atoms: _395  and  _396
REMARK  166  A    between atoms: _399  and  _401
REMARK  167  A    between atoms: _401  and  _402
REMARK  168  A    between atoms: _401  and  _404
REMARK  169  A    between atoms: _404  and  _405
REMARK  170  A    between atoms: _408  and  _410
REMARK  171  A    between atoms: _410  and  _411
REMARK  172  A    between atoms: _410  and  _413
REMARK  173  A    between atoms: _413  and  _414
REMARK  174  A    between atoms: _417  and  _419
REMARK  175  A    between atoms: _419  and  _420
REMARK  176  A    between atoms: _419  and  _422
REMARK  177  A    between atoms: _422  and  _423
REMARK  178  A    between atoms: _423  and  _424
REMARK  179  A    between atoms: _424  and  _425
REMARK  180  A    between atoms: _425  and  _426
REMARK  181  A    between atoms: _430  and  _432
REMARK  182  A    between atoms: _432  and  _433
REMARK  183  A    between atoms: _432  and  _435
REMARK  184  A    between atoms: _435  and  _436
REMARK  185  A    between atoms: _439  and  _441
REMARK  186  A    between atoms: _441  and  _442
REMARK  187  A    between atoms: _441  and  _444
REMARK  188  A    between atoms: _444  and  _445
REMARK  189  A    between atoms: _448  and  _450
REMARK  190  A    between atoms: _450  and  _451
REMARK  191  A    between atoms: _450  and  _453
REMARK  192  A    between atoms: _453  and  _454
REMARK  193  A    between atoms: _457  and  _459
REMARK  194  A    between atoms: _459  and  _460
REMARK  195  A    between atoms: _459  and  _462
REMARK  196  A    between atoms: _462  and  _463
REMARK  197  A    between atoms: _469  and  _471
REMARK  198  A    between atoms: _471  and  _472
REMARK  199  A    between atoms: _474  and  _476
REMARK  200  A    between atoms: _476  and  _477
REMARK  201  A    between atoms: _476  and  _479
REMARK  202  A    between atoms: _479  and  _480
REMARK                            x       y       z     vdW  Elec       q    Type
REMARK                         _______ _______ _______ _____ _____    ______ ____
ROOT
ATOM      1  O   HOH     1     -25.251 -45.883  -6.582  0.00  0.00    +0.000 OA
ENDROOT
TORSDOF 0
REMARK  Name = ../refined-set-2016/1xws/1xws_pocket.pdb
REMARK  202 active torsions:
REMARK  status: ('A' for Active; 'I' for Inactive)
REMARK    1  A    between atoms: _1  and  _3
REMARK    2  A    between atoms: _3  and  _4
REMARK    3  A    between atoms: _3  and  _6
REMARK    4  A    between atoms: _6  and  _7
REMARK    5  A    between atoms: _10  and  _12
REMARK    6  A    between atoms: _12  and  _13
REMARK    7  A    between atoms: _12  and  _15
REMARK    8  A    between atoms: _15  and  _16
REMARK    9  A    between atoms: _19  and  _21
REMARK   10  A    between atoms: _21  and  _22
REMARK   11  A    between atoms: _24  and  _26
REMARK   12  A    between atoms: _26  and  _27
REMARK   13  A    between atoms: _26  and  _29
REMARK   14  A    between atoms: _29  and  _30
REMARK   15  A    between atoms: _32  and  _34
REMARK   16  A    between atoms: _34  and  _35
REMARK   17  A    between atoms: _37  and  _39
REMARK   18  A    between atoms: _39  and  _40
REMARK   19  A    between atoms: _42  and  _44
REMARK   20  A    between atoms: _44  and  _45
REMARK   21  A    between atoms: _44  and  _47
REMARK   22  A    between atoms: _47  and  _48
REMARK   23  A    between atoms: _54  and  _56
REMARK   24  A    between atoms: _56  and  _57
REMARK   25  A    between atoms: _59  and  _61
REMARK   26  A    between atoms: _61  and  _62
REMARK   27  A    between atoms: _61  and  _64
REMARK   28  A    between atoms: _64  and  _65
REMARK   29  A    between atoms: _67  and  _69
REMARK   30  A    between atoms: _69  and  _70
REMARK   31  A    between atoms: _69  and  _72
REMARK   32  A    between atoms: _75  and  _77
REMARK   33  A    between atoms: _77  and  _78
REMARK   34  A    between atoms: _77  and  _80
REMARK   35  A    between atoms: _80  and  _81
REMARK   36  A    between atoms: _86  and  _87
REMARK   37  A    between atoms: _89  and  _91
REMARK   38  A    between atoms: _91  and  _92
REMARK   39  A    between atoms: _91  and  _94
REMARK   40  A    between atoms: _94  and  _95
REMARK   41  A    between atoms: _97  and  _99
REMARK   42  A    between atoms: _99  and  _100
REMARK   43  A    between atoms: _103  and  _104
REMARK   44  A    between atoms: _109  and  _111
REMARK   45  A    between atoms: _111  and  _112
REMARK   46  A    between atoms: _111  and  _114
REMARK   47  A    between atoms: _117  and  _119
REMARK   48  A    between atoms: _119  and  _120
REMARK   49  A    between atoms: _123  and  _125
REMARK   50  A    between atoms: _125  and  _126
REMARK   51  A    between atoms: _125  and  _128
REMARK   52  A    between atoms: _128  and  _129
REMARK   53  A    between atoms: _132  and  _134
REMARK   54  A    between atoms: _134  and  _135
REMARK   55  A    between atoms: _134  and  _137
REMARK   56  A    between atoms: _137  and  _138
REMARK   57  A    between atoms: _138  and  _139
REMARK   58  A    between atoms: _139  and  _140
REMARK   59  A    between atoms: _140  and  _141
REMARK   60  A    between atoms: _145  and  _147
REMARK   61  A    between atoms: _147  and  _148
REMARK   62  A    between atoms: _147  and  _150
REMARK   63  A    between atoms: _150  and  _151
REMARK   64  A    between atoms: _156  and  _158
REMARK   65  A    between atoms: _158  and  _159
REMARK   66  A    between atoms: _158  and  _161
REMARK   67  A    between atoms: _164  and  _166
REMARK   68  A    between atoms: _166  and  _167
REMARK   69  A    between atoms: _166  and  _169
REMARK   70  A    between atoms: _169  and  _170
REMARK   71  A    between atoms: _170  and  _171
REMARK   72  A    between atoms: _174  and  _176
REMARK   73  A    between atoms: _176  and  _177
REMARK   74  A    between atoms: _176  and  _179
REMARK   75  A    between atoms: _179  and  _180
REMARK   76  A    between atoms: _183  and  _185
REMARK   77  A    between atoms: _185  and  _186
REMARK   78  A    between atoms: _185  and  _188
REMARK   79  A    between atoms: _191  and  _193
REMARK   80  A    between atoms: _193  and  _194
REMARK   81  A    between atoms: _193  and  _196
REMARK   82  A    between atoms: _196  and  _197
REMARK   83  A    between atoms: _200  and  _202
REMARK   84  A    between atoms: _202  and  _203
REMARK   85  A    between atoms: _202  and  _205
REMARK   86  A    between atoms: _205  and  _206
REMARK   87  A    between atoms: _206  and  _207
REMARK   88  A    between atoms: _207  and  _208
REMARK   89  A    between atoms: _217  and  _219
REMARK   90  A    between atoms: _219  and  _220
REMARK   91  A    between atoms: _219  and  _222
REMARK   92  A    between atoms: _222  and  _223
REMARK   93  A    between atoms: _226  and  _228
REMARK   94  A    between atoms: _228  and  _229
REMARK   95  A    between atoms: _228  and  _231
REMARK   96  A    between atoms: _231  and  _232
REMARK   97  A    between atoms: _235  and  _237
REMARK   98  A    between atoms: _237  and  _238
REMARK   99  A    between atoms: _237  and  _240
REMARK  100  A    between atoms: _240  and  _241
REMARK  101  A    between atoms: _244  and  _246
REMARK  102  A    between atoms: _246  and  _247
REMARK  103  A    between atoms: _246  and  _249
REMARK  104  A    between atoms: _249  and  _250
REMARK  105  A    between atoms: _253  and  _255
REMARK  106  A    between atoms: _255  and  _256
REMARK  107  A    between atoms: _255  and  _258
REMARK  108  A    between atoms: _258  and  _259
REMARK  109  A    between atoms: _259  and  _260
REMARK  110  A    between atoms: _263  and  _265
REMARK  111  A    between atoms: _265  and  _266
REMARK  112  A    between atoms: _265  and  _268
REMARK  113  A    between atoms: _268  and  _269
REMARK  114  A    between atoms: _269  and  _270
REMARK  115  A    between atoms: _270  and  _271
REMARK  116  A    between atoms: _281  and  _282
REMARK  117  A    between atoms: _287  and  _289
REMARK  118  A    between atoms: _289  and  _290
REMARK  119  A    between atoms: _289  and  _292
REMARK  120  A    between atoms: _292  and  _293
REMARK  121  A    between atoms: _293  and  _294
REMARK  122  A    between atoms: _297  and  _299
REMARK  123  A    between atoms: _299  and  _300
REMARK  124  A    between atoms: _299  and  _302
REMARK  125  A    between atoms: _305  and  _307
REMARK  126  A    between atoms: _307  and  _308
REMARK  127  A    between atoms: _307  and  _310
REMARK  128  A    between atoms: _310  and  _311
REMARK  129  A    between atoms: _311  and  _312
REMARK  130  A    between atoms: _317  and  _319
REMARK  131  A    between atoms: _319  and  _320
REMARK  132  A    between atoms: _319  and  _322
REMARK  133  A    between atoms: _322  and  _323
REMARK  134  A    between atoms: _326  and  _328
REMARK  135  A    between atoms: _328  and  _329
REMARK  136  A    between atoms: _328  and  _331
REMARK  137  A    between atoms: _331  and  _332
REMARK  138  A    between atoms: _338  and  _340
REMARK  139  A    between atoms: _340  and  _341
REMARK  140  A    between atoms: _340  and  _343
REMARK  141  A    between atoms: _343  and  _344
REMARK  142  A    between atoms: _347  and  _349
REMARK  143  A    between atoms: _349  and  _350
REMARK  144  A    between atoms: _349  and  _352
REMARK  145  A    between atoms: _352  and  _353
REMARK  146  A    between atoms: _353  and  _354
REMARK  147  A    between atoms: _354  and  _355
REMARK  148  A    between atoms: _355  and  _356
REMARK  149  A    between atoms: _360  and  _362
REMARK  150  A    between atoms: _362  and  _363
REMARK  151  A    between atoms: _362  and  _365
REMARK  152  A    between atoms: _365  and  _366
REMARK  153  A    between atoms: _369  and  _371
REMARK  154  A    between atoms: _371  and  _372
REMARK  155  A    between atoms: _371  and  _374
REMARK  156  A    between atoms: _374  and  _375
REMARK  157  A    between atoms: _375  and  _376
REMARK  158  A    between atoms: _379  and  _381
REMARK  159  A    between atoms: _381  and  _382
REMARK  160  A    between atoms: _381  and  _384
REMARK  161  A    between atoms: _384  and  _385
REMARK  162  A    between atoms: _390  and  _392
REMARK  163  A    between atoms: _392  and  _393
REMARK  164  A    between atoms: _392  and  _395
REMARK  165  A    between atoms: _395  and  _396
REMARK  166  A    between atoms: _399  and  _401
REMARK  167  A    between atoms: _401  and  _402
REMARK  168  A    between atoms: _401  and  _404
REMARK  169  A    between atoms: _404  and  _405
REMARK  170  A    between atoms: _408  and  _410
REMARK  171  A    between atoms: _410  and  _411
REMARK  172  A    between atoms: _410  and  _413
REMARK  173  A    between atoms: _413  and  _414
REMARK  174  A    between atoms: _417  and  _419
REMARK  175  A    between atoms: _419  and  _420
REMARK  176  A    between atoms: _419  and  _422
REMARK  177  A    between atoms: _422  and  _423
REMARK  178  A    between atoms: _423  and  _424
REMARK  179  A    between atoms: _424  and  _425
REMARK  180  A    between atoms: _425  and  _426
REMARK  181  A    between atoms: _430  and  _432
REMARK  182  A    between atoms: _432  and  _433
REMARK  183  A    between atoms: _432  and  _435
REMARK  184  A    between atoms: _435  and  _436
REMARK  185  A    between atoms: _439  and  _441
REMARK  186  A    between atoms: _441  and  _442
REMARK  187  A    between atoms: _441  and  _444
REMARK  188  A    between atoms: _444  and  _445
REMARK  189  A    between atoms: _448  and  _450
REMARK  190  A    between atoms: _450  and  _451
REMARK  191  A    between atoms: _450  and  _453
REMARK  192  A    between atoms: _453  and  _454
REMARK  193  A    between atoms: _457  and  _459
REMARK  194  A    between atoms: _459  and  _460
REMARK  195  A    between atoms: _459  and  _462
REMARK  196  A    between atoms: _462  and  _463
REMARK  197  A    between atoms: _469  and  _471
REMARK  198  A    between atoms: _471  and  _472
REMARK  199  A    between atoms: _474  and  _476
REMARK  200  A    between atoms: _476  and  _477
REMARK  201  A    between atoms: _476  and  _479
REMARK  202  A    between atoms: _479  and  _480
REMARK                            x       y       z     vdW  Elec       q    Type
REMARK                         _______ _______ _______ _____ _____    ______ ____
ROOT
ATOM      1  O   HOH     1     -20.436 -32.177   8.103  0.00  0.00    +0.000 OA
ENDROOT
TORSDOF 0
REMARK  Name = ../refined-set-2016/1xws/1xws_pocket.pdb
REMARK  202 active torsions:
REMARK  status: ('A' for Active; 'I' for Inactive)
REMARK    1  A    between atoms: _1  and  _3
REMARK    2  A    between atoms: _3  and  _4
REMARK    3  A    between atoms: _3  and  _6
REMARK    4  A    between atoms: _6  and  _7
REMARK    5  A    between atoms: _10  and  _12
REMARK    6  A    between atoms: _12  and  _13
REMARK    7  A    between atoms: _12  and  _15
REMARK    8  A    between atoms: _15  and  _16
REMARK    9  A    between atoms: _19  and  _21
REMARK   10  A    between atoms: _21  and  _22
REMARK   11  A    between atoms: _24  and  _26
REMARK   12  A    between atoms: _26  and  _27
REMARK   13  A    between atoms: _26  and  _29
REMARK   14  A    between atoms: _29  and  _30
REMARK   15  A    between atoms: _32  and  _34
REMARK   16  A    between atoms: _34  and  _35
REMARK   17  A    between atoms: _37  and  _39
REMARK   18  A    between atoms: _39  and  _40
REMARK   19  A    between atoms: _42  and  _44
REMARK   20  A    between atoms: _44  and  _45
REMARK   21  A    between atoms: _44  and  _47
REMARK   22  A    between atoms: _47  and  _48
REMARK   23  A    between atoms: _54  and  _56
REMARK   24  A    between atoms: _56  and  _57
REMARK   25  A    between atoms: _59  and  _61
REMARK   26  A    between atoms: _61  and  _62
REMARK   27  A    between atoms: _61  and  _64
REMARK   28  A    between atoms: _64  and  _65
REMARK   29  A    between atoms: _67  and  _69
REMARK   30  A    between atoms: _69  and  _70
REMARK   31  A    between atoms: _69  and  _72
REMARK   32  A    between atoms: _75  and  _77
REMARK   33  A    between atoms: _77  and  _78
REMARK   34  A    between atoms: _77  and  _80
REMARK   35  A    between atoms: _80  and  _81
REMARK   36  A    between atoms: _86  and  _87
REMARK   37  A    between atoms: _89  and  _91
REMARK   38  A    between atoms: _91  and  _92
REMARK   39  A    between atoms: _91  and  _94
REMARK   40  A    between atoms: _94  and  _95
REMARK   41  A    between atoms: _97  and  _99
REMARK   42  A    between atoms: _99  and  _100
REMARK   43  A    between atoms: _103  and  _104
REMARK   44  A    between atoms: _109  and  _111
REMARK   45  A    between atoms: _111  and  _112
REMARK   46  A    between atoms: _111  and  _114
REMARK   47  A    between atoms: _117  and  _119
REMARK   48  A    between atoms: _119  and  _120
REMARK   49  A    between atoms: _123  and  _125
REMARK   50  A    between atoms: _125  and  _126
REMARK   51  A    between atoms: _125  and  _128
REMARK   52  A    between atoms: _128  and  _129
REMARK   53  A    between atoms: _132  and  _134
REMARK   54  A    between atoms: _134  and  _135
REMARK   55  A    between atoms: _134  and  _137
REMARK   56  A    between atoms: _137  and  _138
REMARK   57  A    between atoms: _138  and  _139
REMARK   58  A    between atoms: _139  and  _140
REMARK   59  A    between atoms: _140  and  _141
REMARK   60  A    between atoms: _145  and  _147
REMARK   61  A    between atoms: _147  and  _148
REMARK   62  A    between atoms: _147  and  _150
REMARK   63  A    between atoms: _150  and  _151
REMARK   64  A    between atoms: _156  and  _158
REMARK   65  A    between atoms: _158  and  _159
REMARK   66  A    between atoms: _158  and  _161
REMARK   67  A    between atoms: _164  and  _166
REMARK   68  A    between atoms: _166  and  _167
REMARK   69  A    between atoms: _166  and  _169
REMARK   70  A    between atoms: _169  and  _170
REMARK   71  A    between atoms: _170  and  _171
REMARK   72  A    between atoms: _174  and  _176
REMARK   73  A    between atoms: _176  and  _177
REMARK   74  A    between atoms: _176  and  _179
REMARK   75  A    between atoms: _179  and  _180
REMARK   76  A    between atoms: _183  and  _185
REMARK   77  A    between atoms: _185  and  _186
REMARK   78  A    between atoms: _185  and  _188
REMARK   79  A    between atoms: _191  and  _193
REMARK   80  A    between atoms: _193  and  _194
REMARK   81  A    between atoms: _193  and  _196
REMARK   82  A    between atoms: _196  and  _197
REMARK   83  A    between atoms: _200  and  _202
REMARK   84  A    between atoms: _202  and  _203
REMARK   85  A    between atoms: _202  and  _205
REMARK   86  A    between atoms: _205  and  _206
REMARK   87  A    between atoms: _206  and  _207
REMARK   88  A    between atoms: _207  and  _208
REMARK   89  A    between atoms: _217  and  _219
REMARK   90  A    between atoms: _219  and  _220
REMARK   91  A    between atoms: _219  and  _222
REMARK   92  A    between atoms: _222  and  _223
REMARK   93  A    between atoms: _226  and  _228
REMARK   94  A    between atoms: _228  and  _229
REMARK   95  A    between atoms: _228  and  _231
REMARK   96  A    between atoms: _231  and  _232
REMARK   97  A    between atoms: _235  and  _237
REMARK   98  A    between atoms: _237  and  _238
REMARK   99  A    between atoms: _237  and  _240
REMARK  100  A    between atoms: _240  and  _241
REMARK  101  A    between atoms: _244  and  _246
REMARK  102  A    between atoms: _246  and  _247
REMARK  103  A    between atoms: _246  and  _249
REMARK  104  A    between atoms: _249  and  _250
REMARK  105  A    between atoms: _253  and  _255
REMARK  106  A    between atoms: _255  and  _256
REMARK  107  A    between atoms: _255  and  _258
REMARK  108  A    between atoms: _258  and  _259
REMARK  109  A    between atoms: _259  and  _260
REMARK  110  A    between atoms: _263  and  _265
REMARK  111  A    between atoms: _265  and  _266
REMARK  112  A    between atoms: _265  and  _268
REMARK  113  A    between atoms: _268  and  _269
REMARK  114  A    between atoms: _269  and  _270
REMARK  115  A    between atoms: _270  and  _271
REMARK  116  A    between atoms: _281  and  _282
REMARK  117  A    between atoms: _287  and  _289
REMARK  118  A    between atoms: _289  and  _290
REMARK  119  A    between atoms: _289  and  _292
REMARK  120  A    between atoms: _292  and  _293
REMARK  121  A    between atoms: _293  and  _294
REMARK  122  A    between atoms: _297  and  _299
REMARK  123  A    between atoms: _299  and  _300
REMARK  124  A    between atoms: _299  and  _302
REMARK  125  A    between atoms: _305  and  _307
REMARK  126  A    between atoms: _307  and  _308
REMARK  127  A    between atoms: _307  and  _310
REMARK  128  A    between atoms: _310  and  _311
REMARK  129  A    between atoms: _311  and  _312
REMARK  130  A    between atoms: _317  and  _319
REMARK  131  A    between atoms: _319  and  _320
REMARK  132  A    between atoms: _319  and  _322
REMARK  133  A    between atoms: _322  and  _323
REMARK  134  A    between atoms: _326  and  _328
REMARK  135  A    between atoms: _328  and  _329
REMARK  136  A    between atoms: _328  and  _331
REMARK  137  A    between atoms: _331  and  _332
REMARK  138  A    between atoms: _338  and  _340
REMARK  139  A    between atoms: _340  and  _341
REMARK  140  A    between atoms: _340  and  _343
REMARK  141  A    between atoms: _343  and  _344
REMARK  142  A    between atoms: _347  and  _349
REMARK  143  A    between atoms: _349  and  _350
REMARK  144  A    between atoms: _349  and  _352
REMARK  145  A    between atoms: _352  and  _353
REMARK  146  A    between atoms: _353  and  _354
REMARK  147  A    between atoms: _354  and  _355
REMARK  148  A    between atoms: _355  and  _356
REMARK  149  A    between atoms: _360  and  _362
REMARK  150  A    between atoms: _362  and  _363
REMARK  151  A    between atoms: _362  and  _365
REMARK  152  A    between atoms: _365  and  _366
REMARK  153  A    between atoms: _369  and  _371
REMARK  154  A    between atoms: _371  and  _372
REMARK  155  A    between atoms: _371  and  _374
REMARK  156  A    between atoms: _374  and  _375
REMARK  157  A    between atoms: _375  and  _376
REMARK  158  A    between atoms: _379  and  _381
REMARK  159  A    between atoms: _381  and  _382
REMARK  160  A    between atoms: _381  and  _384
REMARK  161  A    between atoms: _384  and  _385
REMARK  162  A    between atoms: _390  and  _392
REMARK  163  A    between atoms: _392  and  _393
REMARK  164  A    between atoms: _392  and  _395
REMARK  165  A    between atoms: _395  and  _396
REMARK  166  A    between atoms: _399  and  _401
REMARK  167  A    between atoms: _401  and  _402
REMARK  168  A    between atoms: _401  and  _404
REMARK  169  A    between atoms: _404  and  _405
REMARK  170  A    between atoms: _408  and  _410
REMARK  171  A    between atoms: _410  and  _411
REMARK  172  A    between atoms: _410  and  _413
REMARK  173  A    between atoms: _413  and  _414
REMARK  174  A    between atoms: _417  and  _419
REMARK  175  A    between atoms: _419  and  _420
REMARK  176  A    between atoms: _419  and  _422
REMARK  177  A    between atoms: _422  and  _423
REMARK  178  A    between atoms: _423  and  _424
REMARK  179  A    between atoms: _424  and  _425
REMARK  180  A    between atoms: _425  and  _426
REMARK  181  A    between atoms: _430  and  _432
REMARK  182  A    between atoms: _432  and  _433
REMARK  183  A    between atoms: _432  and  _435
REMARK  184  A    between atoms: _435  and  _436
REMARK  185  A    between atoms: _439  and  _441
REMARK  186  A    between atoms: _441  and  _442
REMARK  187  A    between atoms: _441  and  _444
REMARK  188  A    between atoms: _444  and  _445
REMARK  189  A    between atoms: _448  and  _450
REMARK  190  A    between atoms: _450  and  _451
REMARK  191  A    between atoms: _450  and  _453
REMARK  192  A    between atoms: _453  and  _454
REMARK  193  A    between atoms: _457  and  _459
REMARK  194  A    between atoms: _459  and  _460
REMARK  195  A    between atoms: _459  and  _462
REMARK  196  A    between atoms: _462  and  _463
REMARK  197  A    between atoms: _469  and  _471
REMARK  198  A    between atoms: _471  and  _472
REMARK  199  A    between atoms: _474  and  _476
REMARK  200  A    between atoms: _476  and  _477
REMARK  201  A    between atoms: _476  and  _479
REMARK  202  A    between atoms: _479  and  _480
REMARK                            x       y       z     vdW  Elec       q    Type
REMARK                         _______ _______ _______ _____ _____    ______ ____
ROOT
ATOM      1  O   HOH     1     -27.735 -36.891   5.666  0.00  0.00    +0.000 OA
ENDROOT
TORSDOF 0
REMARK  Name = ../refined-set-2016/1xws/1xws_pocket.pdb
REMARK  202 active torsions:
REMARK  status: ('A' for Active; 'I' for Inactive)
REMARK    1  A    between atoms: _1  and  _3
REMARK    2  A    between atoms: _3  and  _4
REMARK    3  A    between atoms: _3  and  _6
REMARK    4  A    between atoms: _6  and  _7
REMARK    5  A    between atoms: _10  and  _12
REMARK    6  A    between atoms: _12  and  _13
REMARK    7  A    between atoms: _12  and  _15
REMARK    8  A    between atoms: _15  and  _16
REMARK    9  A    between atoms: _19  and  _21
REMARK   10  A    between atoms: _21  and  _22
REMARK   11  A    between atoms: _24  and  _26
REMARK   12  A    between atoms: _26  and  _27
REMARK   13  A    between atoms: _26  and  _29
REMARK   14  A    between atoms: _29  and  _30
REMARK   15  A    between atoms: _32  and  _34
REMARK   16  A    between atoms: _34  and  _35
REMARK   17  A    between atoms: _37  and  _39
REMARK   18  A    between atoms: _39  and  _40
REMARK   19  A    between atoms: _42  and  _44
REMARK   20  A    between atoms: _44  and  _45
REMARK   21  A    between atoms: _44  and  _47
REMARK   22  A    between atoms: _47  and  _48
REMARK   23  A    between atoms: _54  and  _56
REMARK   24  A    between atoms: _56  and  _57
REMARK   25  A    between atoms: _59  and  _61
REMARK   26  A    between atoms: _61  and  _62
REMARK   27  A    between atoms: _61  and  _64
REMARK   28  A    between atoms: _64  and  _65
REMARK   29  A    between atoms: _67  and  _69
REMARK   30  A    between atoms: _69  and  _70
REMARK   31  A    between atoms: _69  and  _72
REMARK   32  A    between atoms: _75  and  _77
REMARK   33  A    between atoms: _77  and  _78
REMARK   34  A    between atoms: _77  and  _80
REMARK   35  A    between atoms: _80  and  _81
REMARK   36  A    between atoms: _86  and  _87
REMARK   37  A    between atoms: _89  and  _91
REMARK   38  A    between atoms: _91  and  _92
REMARK   39  A    between atoms: _91  and  _94
REMARK   40  A    between atoms: _94  and  _95
REMARK   41  A    between atoms: _97  and  _99
REMARK   42  A    between atoms: _99  and  _100
REMARK   43  A    between atoms: _103  and  _104
REMARK   44  A    between atoms: _109  and  _111
REMARK   45  A    between atoms: _111  and  _112
REMARK   46  A    between atoms: _111  and  _114
REMARK   47  A    between atoms: _117  and  _119
REMARK   48  A    between atoms: _119  and  _120
REMARK   49  A    between atoms: _123  and  _125
REMARK   50  A    between atoms: _125  and  _126
REMARK   51  A    between atoms: _125  and  _128
REMARK   52  A    between atoms: _128  and  _129
REMARK   53  A    between atoms: _132  and  _134
REMARK   54  A    between atoms: _134  and  _135
REMARK   55  A    between atoms: _134  and  _137
REMARK   56  A    between atoms: _137  and  _138
REMARK   57  A    between atoms: _138  and  _139
REMARK   58  A    between atoms: _139  and  _140
REMARK   59  A    between atoms: _140  and  _141
REMARK   60  A    between atoms: _145  and  _147
REMARK   61  A    between atoms: _147  and  _148
REMARK   62  A    between atoms: _147  and  _150
REMARK   63  A    between atoms: _150  and  _151
REMARK   64  A    between atoms: _156  and  _158
REMARK   65  A    between atoms: _158  and  _159
REMARK   66  A    between atoms: _158  and  _161
REMARK   67  A    between atoms: _164  and  _166
REMARK   68  A    between atoms: _166  and  _167
REMARK   69  A    between atoms: _166  and  _169
REMARK   70  A    between atoms: _169  and  _170
REMARK   71  A    between atoms: _170  and  _171
REMARK   72  A    between atoms: _174  and  _176
REMARK   73  A    between atoms: _176  and  _177
REMARK   74  A    between atoms: _176  and  _179
REMARK   75  A    between atoms: _179  and  _180
REMARK   76  A    between atoms: _183  and  _185
REMARK   77  A    between atoms: _185  and  _186
REMARK   78  A    between atoms: _185  and  _188
REMARK   79  A    between atoms: _191  and  _193
REMARK   80  A    between atoms: _193  and  _194
REMARK   81  A    between atoms: _193  and  _196
REMARK   82  A    between atoms: _196  and  _197
REMARK   83  A    between atoms: _200  and  _202
REMARK   84  A    between atoms: _202  and  _203
REMARK   85  A    between atoms: _202  and  _205
REMARK   86  A    between atoms: _205  and  _206
REMARK   87  A    between atoms: _206  and  _207
REMARK   88  A    between atoms: _207  and  _208
REMARK   89  A    between atoms: _217  and  _219
REMARK   90  A    between atoms: _219  and  _220
REMARK   91  A    between atoms: _219  and  _222
REMARK   92  A    between atoms: _222  and  _223
REMARK   93  A    between atoms: _226  and  _228
REMARK   94  A    between atoms: _228  and  _229
REMARK   95  A    between atoms: _228  and  _231
REMARK   96  A    between atoms: _231  and  _232
REMARK   97  A    between atoms: _235  and  _237
REMARK   98  A    between atoms: _237  and  _238
REMARK   99  A    between atoms: _237  and  _240
REMARK  100  A    between atoms: _240  and  _241
REMARK  101  A    between atoms: _244  and  _246
REMARK  102  A    between atoms: _246  and  _247
REMARK  103  A    between atoms: _246  and  _249
REMARK  104  A    between atoms: _249  and  _250
REMARK  105  A    between atoms: _253  and  _255
REMARK  106  A    between atoms: _255  and  _256
REMARK  107  A    between atoms: _255  and  _258
REMARK  108  A    between atoms: _258  and  _259
REMARK  109  A    between atoms: _259  and  _260
REMARK  110  A    between atoms: _263  and  _265
REMARK  111  A    between atoms: _265  and  _266
REMARK  112  A    between atoms: _265  and  _268
REMARK  113  A    between atoms: _268  and  _269
REMARK  114  A    between atoms: _269  and  _270
REMARK  115  A    between atoms: _270  and  _271
REMARK  116  A    between atoms: _281  and  _282
REMARK  117  A    between atoms: _287  and  _289
REMARK  118  A    between atoms: _289  and  _290
REMARK  119  A    between atoms: _289  and  _292
REMARK  120  A    between atoms: _292  and  _293
REMARK  121  A    between atoms: _293  and  _294
REMARK  122  A    between atoms: _297  and  _299
REMARK  123  A    between atoms: _299  and  _300
REMARK  124  A    between atoms: _299  and  _302
REMARK  125  A    between atoms: _305  and  _307
REMARK  126  A    between atoms: _307  and  _308
REMARK  127  A    between atoms: _307  and  _310
REMARK  128  A    between atoms: _310  and  _311
REMARK  129  A    between atoms: _311  and  _312
REMARK  130  A    between atoms: _317  and  _319
REMARK  131  A    between atoms: _319  and  _320
REMARK  132  A    between atoms: _319  and  _322
REMARK  133  A    between atoms: _322  and  _323
REMARK  134  A    between atoms: _326  and  _328
REMARK  135  A    between atoms: _328  and  _329
REMARK  136  A    between atoms: _328  and  _331
REMARK  137  A    between atoms: _331  and  _332
REMARK  138  A    between atoms: _338  and  _340
REMARK  139  A    between atoms: _340  and  _341
REMARK  140  A    between atoms: _340  and  _343
REMARK  141  A    between atoms: _343  and  _344
REMARK  142  A    between atoms: _347  and  _349
REMARK  143  A    between atoms: _349  and  _350
REMARK  144  A    between atoms: _349  and  _352
REMARK  145  A    between atoms: _352  and  _353
REMARK  146  A    between atoms: _353  and  _354
REMARK  147  A    between atoms: _354  and  _355
REMARK  148  A    between atoms: _355  and  _356
REMARK  149  A    between atoms: _360  and  _362
REMARK  150  A    between atoms: _362  and  _363
REMARK  151  A    between atoms: _362  and  _365
REMARK  152  A    between atoms: _365  and  _366
REMARK  153  A    between atoms: _369  and  _371
REMARK  154  A    between atoms: _371  and  _372
REMARK  155  A    between atoms: _371  and  _374
REMARK  156  A    between atoms: _374  and  _375
REMARK  157  A    between atoms: _375  and  _376
REMARK  158  A    between atoms: _379  and  _381
REMARK  159  A    between atoms: _381  and  _382
REMARK  160  A    between atoms: _381  and  _384
REMARK  161  A    between atoms: _384  and  _385
REMARK  162  A    between atoms: _390  and  _392
REMARK  163  A    between atoms: _392  and  _393
REMARK  164  A    between atoms: _392  and  _395
REMARK  165  A    between atoms: _395  and  _396
REMARK  166  A    between atoms: _399  and  _401
REMARK  167  A    between atoms: _401  and  _402
REMARK  168  A    between atoms: _401  and  _404
REMARK  169  A    between atoms: _404  and  _405
REMARK  170  A    between atoms: _408  and  _410
REMARK  171  A    between atoms: _410  and  _411
REMARK  172  A    between atoms: _410  and  _413
REMARK  173  A    between atoms: _413  and  _414
REMARK  174  A    between atoms: _417  and  _419
REMARK  175  A    between atoms: _419  and  _420
REMARK  176  A    between atoms: _419  and  _422
REMARK  177  A    between atoms: _422  and  _423
REMARK  178  A    between atoms: _423  and  _424
REMARK  179  A    between atoms: _424  and  _425
REMARK  180  A    between atoms: _425  and  _426
REMARK  181  A    between atoms: _430  and  _432
REMARK  182  A    between atoms: _432  and  _433
REMARK  183  A    between atoms: _432  and  _435
REMARK  184  A    between atoms: _435  and  _436
REMARK  185  A    between atoms: _439  and  _441
REMARK  186  A    between atoms: _441  and  _442
REMARK  187  A    between atoms: _441  and  _444
REMARK  188  A    between atoms: _444  and  _445
REMARK  189  A    between atoms: _448  and  _450
REMARK  190  A    between atoms: _450  and  _451
REMARK  191  A    between atoms: _450  and  _453
REMARK  192  A    between atoms: _453  and  _454
REMARK  193  A    between atoms: _457  and  _459
REMARK  194  A    between atoms: _459  and  _460
REMARK  195  A    between atoms: _459  and  _462
REMARK  196  A    between atoms: _462  and  _463
REMARK  197  A    between atoms: _469  and  _471
REMARK  198  A    between atoms: _471  and  _472
REMARK  199  A    between atoms: _474  and  _476
REMARK  200  A    between atoms: _476  and  _477
REMARK  201  A    between atoms: _476  and  _479
REMARK  202  A    between atoms: _479  and  _480
REMARK                            x       y       z     vdW  Elec       q    Type
REMARK                         _______ _______ _______ _____ _____    ______ ____
ROOT
ATOM      1  O   HOH     1      -7.994 -32.917   7.280  0.00  0.00    +0.000 OA
ENDROOT
TORSDOF 0
REMARK  Name = ../refined-set-2016/1xws/1xws_pocket.pdb
REMARK  202 active torsions:
REMARK  status: ('A' for Active; 'I' for Inactive)
REMARK    1  A    between atoms: _1  and  _3
REMARK    2  A    between atoms: _3  and  _4
REMARK    3  A    between atoms: _3  and  _6
REMARK    4  A    between atoms: _6  and  _7
REMARK    5  A    between atoms: _10  and  _12
REMARK    6  A    between atoms: _12  and  _13
REMARK    7  A    between atoms: _12  and  _15
REMARK    8  A    between atoms: _15  and  _16
REMARK    9  A    between atoms: _19  and  _21
REMARK   10  A    between atoms: _21  and  _22
REMARK   11  A    between atoms: _24  and  _26
REMARK   12  A    between atoms: _26  and  _27
REMARK   13  A    between atoms: _26  and  _29
REMARK   14  A    between atoms: _29  and  _30
REMARK   15  A    between atoms: _32  and  _34
REMARK   16  A    between atoms: _34  and  _35
REMARK   17  A    between atoms: _37  and  _39
REMARK   18  A    between atoms: _39  and  _40
REMARK   19  A    between atoms: _42  and  _44
REMARK   20  A    between atoms: _44  and  _45
REMARK   21  A    between atoms: _44  and  _47
REMARK   22  A    between atoms: _47  and  _48
REMARK   23  A    between atoms: _54  and  _56
REMARK   24  A    between atoms: _56  and  _57
REMARK   25  A    between atoms: _59  and  _61
REMARK   26  A    between atoms: _61  and  _62
REMARK   27  A    between atoms: _61  and  _64
REMARK   28  A    between atoms: _64  and  _65
REMARK   29  A    between atoms: _67  and  _69
REMARK   30  A    between atoms: _69  and  _70
REMARK   31  A    between atoms: _69  and  _72
REMARK   32  A    between atoms: _75  and  _77
REMARK   33  A    between atoms: _77  and  _78
REMARK   34  A    between atoms: _77  and  _80
REMARK   35  A    between atoms: _80  and  _81
REMARK   36  A    between atoms: _86  and  _87
REMARK   37  A    between atoms: _89  and  _91
REMARK   38  A    between atoms: _91  and  _92
REMARK   39  A    between atoms: _91  and  _94
REMARK   40  A    between atoms: _94  and  _95
REMARK   41  A    between atoms: _97  and  _99
REMARK   42  A    between atoms: _99  and  _100
REMARK   43  A    between atoms: _103  and  _104
REMARK   44  A    between atoms: _109  and  _111
REMARK   45  A    between atoms: _111  and  _112
REMARK   46  A    between atoms: _111  and  _114
REMARK   47  A    between atoms: _117  and  _119
REMARK   48  A    between atoms: _119  and  _120
REMARK   49  A    between atoms: _123  and  _125
REMARK   50  A    between atoms: _125  and  _126
REMARK   51  A    between atoms: _125  and  _128
REMARK   52  A    between atoms: _128  and  _129
REMARK   53  A    between atoms: _132  and  _134
REMARK   54  A    between atoms: _134  and  _135
REMARK   55  A    between atoms: _134  and  _137
REMARK   56  A    between atoms: _137  and  _138
REMARK   57  A    between atoms: _138  and  _139
REMARK   58  A    between atoms: _139  and  _140
REMARK   59  A    between atoms: _140  and  _141
REMARK   60  A    between atoms: _145  and  _147
REMARK   61  A    between atoms: _147  and  _148
REMARK   62  A    between atoms: _147  and  _150
REMARK   63  A    between atoms: _150  and  _151
REMARK   64  A    between atoms: _156  and  _158
REMARK   65  A    between atoms: _158  and  _159
REMARK   66  A    between atoms: _158  and  _161
REMARK   67  A    between atoms: _164  and  _166
REMARK   68  A    between atoms: _166  and  _167
REMARK   69  A    between atoms: _166  and  _169
REMARK   70  A    between atoms: _169  and  _170
REMARK   71  A    between atoms: _170  and  _171
REMARK   72  A    between atoms: _174  and  _176
REMARK   73  A    between atoms: _176  and  _177
REMARK   74  A    between atoms: _176  and  _179
REMARK   75  A    between atoms: _179  and  _180
REMARK   76  A    between atoms: _183  and  _185
REMARK   77  A    between atoms: _185  and  _186
REMARK   78  A    between atoms: _185  and  _188
REMARK   79  A    between atoms: _191  and  _193
REMARK   80  A    between atoms: _193  and  _194
REMARK   81  A    between atoms: _193  and  _196
REMARK   82  A    between atoms: _196  and  _197
REMARK   83  A    between atoms: _200  and  _202
REMARK   84  A    between atoms: _202  and  _203
REMARK   85  A    between atoms: _202  and  _205
REMARK   86  A    between atoms: _205  and  _206
REMARK   87  A    between atoms: _206  and  _207
REMARK   88  A    between atoms: _207  and  _208
REMARK   89  A    between atoms: _217  and  _219
REMARK   90  A    between atoms: _219  and  _220
REMARK   91  A    between atoms: _219  and  _222
REMARK   92  A    between atoms: _222  and  _223
REMARK   93  A    between atoms: _226  and  _228
REMARK   94  A    between atoms: _228  and  _229
REMARK   95  A    between atoms: _228  and  _231
REMARK   96  A    between atoms: _231  and  _232
REMARK   97  A    between atoms: _235  and  _237
REMARK   98  A    between atoms: _237  and  _238
REMARK   99  A    between atoms: _237  and  _240
REMARK  100  A    between atoms: _240  and  _241
REMARK  101  A    between atoms: _244  and  _246
REMARK  102  A    between atoms: _246  and  _247
REMARK  103  A    between atoms: _246  and  _249
REMARK  104  A    between atoms: _249  and  _250
REMARK  105  A    between atoms: _253  and  _255
REMARK  106  A    between atoms: _255  and  _256
REMARK  107  A    between atoms: _255  and  _258
REMARK  108  A    between atoms: _258  and  _259
REMARK  109  A    between atoms: _259  and  _260
REMARK  110  A    between atoms: _263  and  _265
REMARK  111  A    between atoms: _265  and  _266
REMARK  112  A    between atoms: _265  and  _268
REMARK  113  A    between atoms: _268  and  _269
REMARK  114  A    between atoms: _269  and  _270
REMARK  115  A    between atoms: _270  and  _271
REMARK  116  A    between atoms: _281  and  _282
REMARK  117  A    between atoms: _287  and  _289
REMARK  118  A    between atoms: _289  and  _290
REMARK  119  A    between atoms: _289  and  _292
REMARK  120  A    between atoms: _292  and  _293
REMARK  121  A    between atoms: _293  and  _294
REMARK  122  A    between atoms: _297  and  _299
REMARK  123  A    between atoms: _299  and  _300
REMARK  124  A    between atoms: _299  and  _302
REMARK  125  A    between atoms: _305  and  _307
REMARK  126  A    between atoms: _307  and  _308
REMARK  127  A    between atoms: _307  and  _310
REMARK  128  A    between atoms: _310  and  _311
REMARK  129  A    between atoms: _311  and  _312
REMARK  130  A    between atoms: _317  and  _319
REMARK  131  A    between atoms: _319  and  _320
REMARK  132  A    between atoms: _319  and  _322
REMARK  133  A    between atoms: _322  and  _323
REMARK  134  A    between atoms: _326  and  _328
REMARK  135  A    between atoms: _328  and  _329
REMARK  136  A    between atoms: _328  and  _331
REMARK  137  A    between atoms: _331  and  _332
REMARK  138  A    between atoms: _338  and  _340
REMARK  139  A    between atoms: _340  and  _341
REMARK  140  A    between atoms: _340  and  _343
REMARK  141  A    between atoms: _343  and  _344
REMARK  142  A    between atoms: _347  and  _349
REMARK  143  A    between atoms: _349  and  _350
REMARK  144  A    between atoms: _349  and  _352
REMARK  145  A    between atoms: _352  and  _353
REMARK  146  A    between atoms: _353  and  _354
REMARK  147  A    between atoms: _354  and  _355
REMARK  148  A    between atoms: _355  and  _356
REMARK  149  A    between atoms: _360  and  _362
REMARK  150  A    between atoms: _362  and  _363
REMARK  151  A    between atoms: _362  and  _365
REMARK  152  A    between atoms: _365  and  _366
REMARK  153  A    between atoms: _369  and  _371
REMARK  154  A    between atoms: _371  and  _372
REMARK  155  A    between atoms: _371  and  _374
REMARK  156  A    between atoms: _374  and  _375
REMARK  157  A    between atoms: _375  and  _376
REMARK  158  A    between atoms: _379  and  _381
REMARK  159  A    between atoms: _381  and  _382
REMARK  160  A    between atoms: _381  and  _384
REMARK  161  A    between atoms: _384  and  _385
REMARK  162  A    between atoms: _390  and  _392
REMARK  163  A    between atoms: _392  and  _393
REMARK  164  A    between atoms: _392  and  _395
REMARK  165  A    between atoms: _395  and  _396
REMARK  166  A    between atoms: _399  and  _401
REMARK  167  A    between atoms: _401  and  _402
REMARK  168  A    between atoms: _401  and  _404
REMARK  169  A    between atoms: _404  and  _405
REMARK  170  A    between atoms: _408  and  _410
REMARK  171  A    between atoms: _410  and  _411
REMARK  172  A    between atoms: _410  and  _413
REMARK  173  A    between atoms: _413  and  _414
REMARK  174  A    between atoms: _417  and  _419
REMARK  175  A    between atoms: _419  and  _420
REMARK  176  A    between atoms: _419  and  _422
REMARK  177  A    between atoms: _422  and  _423
REMARK  178  A    between atoms: _423  and  _424
REMARK  179  A    between atoms: _424  and  _425
REMARK  180  A    between atoms: _425  and  _426
REMARK  181  A    between atoms: _430  and  _432
REMARK  182  A    between atoms: _432  and  _433
REMARK  183  A    between atoms: _432  and  _435
REMARK  184  A    between atoms: _435  and  _436
REMARK  185  A    between atoms: _439  and  _441
REMARK  186  A    between atoms: _441  and  _442
REMARK  187  A    between atoms: _441  and  _444
REMARK  188  A    between atoms: _444  and  _445
REMARK  189  A    between atoms: _448  and  _450
REMARK  190  A    between atoms: _450  and  _451
REMARK  191  A    between atoms: _450  and  _453
REMARK  192  A    between atoms: _453  and  _454
REMARK  193  A    between atoms: _457  and  _459
REMARK  194  A    between atoms: _459  and  _460
REMARK  195  A    between atoms: _459  and  _462
REMARK  196  A    between atoms: _462  and  _463
REMARK  197  A    between atoms: _469  and  _471
REMARK  198  A    between atoms: _471  and  _472
REMARK  199  A    between atoms: _474  and  _476
REMARK  200  A    between atoms: _476  and  _477
REMARK  201  A    between atoms: _476  and  _479
REMARK  202  A    between atoms: _479  and  _480
REMARK                            x       y       z     vdW  Elec       q    Type
REMARK                         _______ _______ _______ _____ _____    ______ ____
ROOT
ATOM      1  O   HOH     1     -23.615 -38.666   6.117  0.00  0.00    +0.000 OA
ENDROOT
TORSDOF 0
REMARK  Name = ../refined-set-2016/1xws/1xws_pocket.pdb
REMARK  202 active torsions:
REMARK  status: ('A' for Active; 'I' for Inactive)
REMARK    1  A    between atoms: _1  and  _3
REMARK    2  A    between atoms: _3  and  _4
REMARK    3  A    between atoms: _3  and  _6
REMARK    4  A    between atoms: _6  and  _7
REMARK    5  A    between atoms: _10  and  _12
REMARK    6  A    between atoms: _12  and  _13
REMARK    7  A    between atoms: _12  and  _15
REMARK    8  A    between atoms: _15  and  _16
REMARK    9  A    between atoms: _19  and  _21
REMARK   10  A    between atoms: _21  and  _22
REMARK   11  A    between atoms: _24  and  _26
REMARK   12  A    between atoms: _26  and  _27
REMARK   13  A    between atoms: _26  and  _29
REMARK   14  A    between atoms: _29  and  _30
REMARK   15  A    between atoms: _32  and  _34
REMARK   16  A    between atoms: _34  and  _35
REMARK   17  A    between atoms: _37  and  _39
REMARK   18  A    between atoms: _39  and  _40
REMARK   19  A    between atoms: _42  and  _44
REMARK   20  A    between atoms: _44  and  _45
REMARK   21  A    between atoms: _44  and  _47
REMARK   22  A    between atoms: _47  and  _48
REMARK   23  A    between atoms: _54  and  _56
REMARK   24  A    between atoms: _56  and  _57
REMARK   25  A    between atoms: _59  and  _61
REMARK   26  A    between atoms: _61  and  _62
REMARK   27  A    between atoms: _61  and  _64
REMARK   28  A    between atoms: _64  and  _65
REMARK   29  A    between atoms: _67  and  _69
REMARK   30  A    between atoms: _69  and  _70
REMARK   31  A    between atoms: _69  and  _72
REMARK   32  A    between atoms: _75  and  _77
REMARK   33  A    between atoms: _77  and  _78
REMARK   34  A    between atoms: _77  and  _80
REMARK   35  A    between atoms: _80  and  _81
REMARK   36  A    between atoms: _86  and  _87
REMARK   37  A    between atoms: _89  and  _91
REMARK   38  A    between atoms: _91  and  _92
REMARK   39  A    between atoms: _91  and  _94
REMARK   40  A    between atoms: _94  and  _95
REMARK   41  A    between atoms: _97  and  _99
REMARK   42  A    between atoms: _99  and  _100
REMARK   43  A    between atoms: _103  and  _104
REMARK   44  A    between atoms: _109  and  _111
REMARK   45  A    between atoms: _111  and  _112
REMARK   46  A    between atoms: _111  and  _114
REMARK   47  A    between atoms: _117  and  _119
REMARK   48  A    between atoms: _119  and  _120
REMARK   49  A    between atoms: _123  and  _125
REMARK   50  A    between atoms: _125  and  _126
REMARK   51  A    between atoms: _125  and  _128
REMARK   52  A    between atoms: _128  and  _129
REMARK   53  A    between atoms: _132  and  _134
REMARK   54  A    between atoms: _134  and  _135
REMARK   55  A    between atoms: _134  and  _137
REMARK   56  A    between atoms: _137  and  _138
REMARK   57  A    between atoms: _138  and  _139
REMARK   58  A    between atoms: _139  and  _140
REMARK   59  A    between atoms: _140  and  _141
REMARK   60  A    between atoms: _145  and  _147
REMARK   61  A    between atoms: _147  and  _148
REMARK   62  A    between atoms: _147  and  _150
REMARK   63  A    between atoms: _150  and  _151
REMARK   64  A    between atoms: _156  and  _158
REMARK   65  A    between atoms: _158  and  _159
REMARK   66  A    between atoms: _158  and  _161
REMARK   67  A    between atoms: _164  and  _166
REMARK   68  A    between atoms: _166  and  _167
REMARK   69  A    between atoms: _166  and  _169
REMARK   70  A    between atoms: _169  and  _170
REMARK   71  A    between atoms: _170  and  _171
REMARK   72  A    between atoms: _174  and  _176
REMARK   73  A    between atoms: _176  and  _177
REMARK   74  A    between atoms: _176  and  _179
REMARK   75  A    between atoms: _179  and  _180
REMARK   76  A    between atoms: _183  and  _185
REMARK   77  A    between atoms: _185  and  _186
REMARK   78  A    between atoms: _185  and  _188
REMARK   79  A    between atoms: _191  and  _193
REMARK   80  A    between atoms: _193  and  _194
REMARK   81  A    between atoms: _193  and  _196
REMARK   82  A    between atoms: _196  and  _197
REMARK   83  A    between atoms: _200  and  _202
REMARK   84  A    between atoms: _202  and  _203
REMARK   85  A    between atoms: _202  and  _205
REMARK   86  A    between atoms: _205  and  _206
REMARK   87  A    between atoms: _206  and  _207
REMARK   88  A    between atoms: _207  and  _208
REMARK   89  A    between atoms: _217  and  _219
REMARK   90  A    between atoms: _219  and  _220
REMARK   91  A    between atoms: _219  and  _222
REMARK   92  A    between atoms: _222  and  _223
REMARK   93  A    between atoms: _226  and  _228
REMARK   94  A    between atoms: _228  and  _229
REMARK   95  A    between atoms: _228  and  _231
REMARK   96  A    between atoms: _231  and  _232
REMARK   97  A    between atoms: _235  and  _237
REMARK   98  A    between atoms: _237  and  _238
REMARK   99  A    between atoms: _237  and  _240
REMARK  100  A    between atoms: _240  and  _241
REMARK  101  A    between atoms: _244  and  _246
REMARK  102  A    between atoms: _246  and  _247
REMARK  103  A    between atoms: _246  and  _249
REMARK  104  A    between atoms: _249  and  _250
REMARK  105  A    between atoms: _253  and  _255
REMARK  106  A    between atoms: _255  and  _256
REMARK  107  A    between atoms: _255  and  _258
REMARK  108  A    between atoms: _258  and  _259
REMARK  109  A    between atoms: _259  and  _260
REMARK  110  A    between atoms: _263  and  _265
REMARK  111  A    between atoms: _265  and  _266
REMARK  112  A    between atoms: _265  and  _268
REMARK  113  A    between atoms: _268  and  _269
REMARK  114  A    between atoms: _269  and  _270
REMARK  115  A    between atoms: _270  and  _271
REMARK  116  A    between atoms: _281  and  _282
REMARK  117  A    between atoms: _287  and  _289
REMARK  118  A    between atoms: _289  and  _290
REMARK  119  A    between atoms: _289  and  _292
REMARK  120  A    between atoms: _292  and  _293
REMARK  121  A    between atoms: _293  and  _294
REMARK  122  A    between atoms: _297  and  _299
REMARK  123  A    between atoms: _299  and  _300
REMARK  124  A    between atoms: _299  and  _302
REMARK  125  A    between atoms: _305  and  _307
REMARK  126  A    between atoms: _307  and  _308
REMARK  127  A    between atoms: _307  and  _310
REMARK  128  A    between atoms: _310  and  _311
REMARK  129  A    between atoms: _311  and  _312
REMARK  130  A    between atoms: _317  and  _319
REMARK  131  A    between atoms: _319  and  _320
REMARK  132  A    between atoms: _319  and  _322
REMARK  133  A    between atoms: _322  and  _323
REMARK  134  A    between atoms: _326  and  _328
REMARK  135  A    between atoms: _328  and  _329
REMARK  136  A    between atoms: _328  and  _331
REMARK  137  A    between atoms: _331  and  _332
REMARK  138  A    between atoms: _338  and  _340
REMARK  139  A    between atoms: _340  and  _341
REMARK  140  A    between atoms: _340  and  _343
REMARK  141  A    between atoms: _343  and  _344
REMARK  142  A    between atoms: _347  and  _349
REMARK  143  A    between atoms: _349  and  _350
REMARK  144  A    between atoms: _349  and  _352
REMARK  145  A    between atoms: _352  and  _353
REMARK  146  A    between atoms: _353  and  _354
REMARK  147  A    between atoms: _354  and  _355
REMARK  148  A    between atoms: _355  and  _356
REMARK  149  A    between atoms: _360  and  _362
REMARK  150  A    between atoms: _362  and  _363
REMARK  151  A    between atoms: _362  and  _365
REMARK  152  A    between atoms: _365  and  _366
REMARK  153  A    between atoms: _369  and  _371
REMARK  154  A    between atoms: _371  and  _372
REMARK  155  A    between atoms: _371  and  _374
REMARK  156  A    between atoms: _374  and  _375
REMARK  157  A    between atoms: _375  and  _376
REMARK  158  A    between atoms: _379  and  _381
REMARK  159  A    between atoms: _381  and  _382
REMARK  160  A    between atoms: _381  and  _384
REMARK  161  A    between atoms: _384  and  _385
REMARK  162  A    between atoms: _390  and  _392
REMARK  163  A    between atoms: _392  and  _393
REMARK  164  A    between atoms: _392  and  _395
REMARK  165  A    between atoms: _395  and  _396
REMARK  166  A    between atoms: _399  and  _401
REMARK  167  A    between atoms: _401  and  _402
REMARK  168  A    between atoms: _401  and  _404
REMARK  169  A    between atoms: _404  and  _405
REMARK  170  A    between atoms: _408  and  _410
REMARK  171  A    between atoms: _410  and  _411
REMARK  172  A    between atoms: _410  and  _413
REMARK  173  A    between atoms: _413  and  _414
REMARK  174  A    between atoms: _417  and  _419
REMARK  175  A    between atoms: _419  and  _420
REMARK  176  A    between atoms: _419  and  _422
REMARK  177  A    between atoms: _422  and  _423
REMARK  178  A    between atoms: _423  and  _424
REMARK  179  A    between atoms: _424  and  _425
REMARK  180  A    between atoms: _425  and  _426
REMARK  181  A    between atoms: _430  and  _432
REMARK  182  A    between atoms: _432  and  _433
REMARK  183  A    between atoms: _432  and  _435
REMARK  184  A    between atoms: _435  and  _436
REMARK  185  A    between atoms: _439  and  _441
REMARK  186  A    between atoms: _441  and  _442
REMARK  187  A    between atoms: _441  and  _444
REMARK  188  A    between atoms: _444  and  _445
REMARK  189  A    between atoms: _448  and  _450
REMARK  190  A    between atoms: _450  and  _451
REMARK  191  A    between atoms: _450  and  _453
REMARK  192  A    between atoms: _453  and  _454
REMARK  193  A    between atoms: _457  and  _459
REMARK  194  A    between atoms: _459  and  _460
REMARK  195  A    between atoms: _459  and  _462
REMARK  196  A    between atoms: _462  and  _463
REMARK  197  A    between atoms: _469  and  _471
REMARK  198  A    between atoms: _471  and  _472
REMARK  199  A    between atoms: _474  and  _476
REMARK  200  A    between atoms: _476  and  _477
REMARK  201  A    between atoms: _476  and  _479
REMARK  202  A    between atoms: _479  and  _480
REMARK                            x       y       z     vdW  Elec       q    Type
REMARK                         _______ _______ _______ _____ _____    ______ ____
ROOT
ATOM      1  O   HOH     1     -18.732 -33.687   6.680  0.00  0.00    +0.000 OA
ENDROOT
TORSDOF 0
REMARK  Name = ../refined-set-2016/1xws/1xws_pocket.pdb
REMARK  202 active torsions:
REMARK  status: ('A' for Active; 'I' for Inactive)
REMARK    1  A    between atoms: _1  and  _3
REMARK    2  A    between atoms: _3  and  _4
REMARK    3  A    between atoms: _3  and  _6
REMARK    4  A    between atoms: _6  and  _7
REMARK    5  A    between atoms: _10  and  _12
REMARK    6  A    between atoms: _12  and  _13
REMARK    7  A    between atoms: _12  and  _15
REMARK    8  A    between atoms: _15  and  _16
REMARK    9  A    between atoms: _19  and  _21
REMARK   10  A    between atoms: _21  and  _22
REMARK   11  A    between atoms: _24  and  _26
REMARK   12  A    between atoms: _26  and  _27
REMARK   13  A    between atoms: _26  and  _29
REMARK   14  A    between atoms: _29  and  _30
REMARK   15  A    between atoms: _32  and  _34
REMARK   16  A    between atoms: _34  and  _35
REMARK   17  A    between atoms: _37  and  _39
REMARK   18  A    between atoms: _39  and  _40
REMARK   19  A    between atoms: _42  and  _44
REMARK   20  A    between atoms: _44  and  _45
REMARK   21  A    between atoms: _44  and  _47
REMARK   22  A    between atoms: _47  and  _48
REMARK   23  A    between atoms: _54  and  _56
REMARK   24  A    between atoms: _56  and  _57
REMARK   25  A    between atoms: _59  and  _61
REMARK   26  A    between atoms: _61  and  _62
REMARK   27  A    between atoms: _61  and  _64
REMARK   28  A    between atoms: _64  and  _65
REMARK   29  A    between atoms: _67  and  _69
REMARK   30  A    between atoms: _69  and  _70
REMARK   31  A    between atoms: _69  and  _72
REMARK   32  A    between atoms: _75  and  _77
REMARK   33  A    between atoms: _77  and  _78
REMARK   34  A    between atoms: _77  and  _80
REMARK   35  A    between atoms: _80  and  _81
REMARK   36  A    between atoms: _86  and  _87
REMARK   37  A    between atoms: _89  and  _91
REMARK   38  A    between atoms: _91  and  _92
REMARK   39  A    between atoms: _91  and  _94
REMARK   40  A    between atoms: _94  and  _95
REMARK   41  A    between atoms: _97  and  _99
REMARK   42  A    between atoms: _99  and  _100
REMARK   43  A    between atoms: _103  and  _104
REMARK   44  A    between atoms: _109  and  _111
REMARK   45  A    between atoms: _111  and  _112
REMARK   46  A    between atoms: _111  and  _114
REMARK   47  A    between atoms: _117  and  _119
REMARK   48  A    between atoms: _119  and  _120
REMARK   49  A    between atoms: _123  and  _125
REMARK   50  A    between atoms: _125  and  _126
REMARK   51  A    between atoms: _125  and  _128
REMARK   52  A    between atoms: _128  and  _129
REMARK   53  A    between atoms: _132  and  _134
REMARK   54  A    between atoms: _134  and  _135
REMARK   55  A    between atoms: _134  and  _137
REMARK   56  A    between atoms: _137  and  _138
REMARK   57  A    between atoms: _138  and  _139
REMARK   58  A    between atoms: _139  and  _140
REMARK   59  A    between atoms: _140  and  _141
REMARK   60  A    between atoms: _145  and  _147
REMARK   61  A    between atoms: _147  and  _148
REMARK   62  A    between atoms: _147  and  _150
REMARK   63  A    between atoms: _150  and  _151
REMARK   64  A    between atoms: _156  and  _158
REMARK   65  A    between atoms: _158  and  _159
REMARK   66  A    between atoms: _158  and  _161
REMARK   67  A    between atoms: _164  and  _166
REMARK   68  A    between atoms: _166  and  _167
REMARK   69  A    between atoms: _166  and  _169
REMARK   70  A    between atoms: _169  and  _170
REMARK   71  A    between atoms: _170  and  _171
REMARK   72  A    between atoms: _174  and  _176
REMARK   73  A    between atoms: _176  and  _177
REMARK   74  A    between atoms: _176  and  _179
REMARK   75  A    between atoms: _179  and  _180
REMARK   76  A    between atoms: _183  and  _185
REMARK   77  A    between atoms: _185  and  _186
REMARK   78  A    between atoms: _185  and  _188
REMARK   79  A    between atoms: _191  and  _193
REMARK   80  A    between atoms: _193  and  _194
REMARK   81  A    between atoms: _193  and  _196
REMARK   82  A    between atoms: _196  and  _197
REMARK   83  A    between atoms: _200  and  _202
REMARK   84  A    between atoms: _202  and  _203
REMARK   85  A    between atoms: _202  and  _205
REMARK   86  A    between atoms: _205  and  _206
REMARK   87  A    between atoms: _206  and  _207
REMARK   88  A    between atoms: _207  and  _208
REMARK   89  A    between atoms: _217  and  _219
REMARK   90  A    between atoms: _219  and  _220
REMARK   91  A    between atoms: _219  and  _222
REMARK   92  A    between atoms: _222  and  _223
REMARK   93  A    between atoms: _226  and  _228
REMARK   94  A    between atoms: _228  and  _229
REMARK   95  A    between atoms: _228  and  _231
REMARK   96  A    between atoms: _231  and  _232
REMARK   97  A    between atoms: _235  and  _237
REMARK   98  A    between atoms: _237  and  _238
REMARK   99  A    between atoms: _237  and  _240
REMARK  100  A    between atoms: _240  and  _241
REMARK  101  A    between atoms: _244  and  _246
REMARK  102  A    between atoms: _246  and  _247
REMARK  103  A    between atoms: _246  and  _249
REMARK  104  A    between atoms: _249  and  _250
REMARK  105  A    between atoms: _253  and  _255
REMARK  106  A    between atoms: _255  and  _256
REMARK  107  A    between atoms: _255  and  _258
REMARK  108  A    between atoms: _258  and  _259
REMARK  109  A    between atoms: _259  and  _260
REMARK  110  A    between atoms: _263  and  _265
REMARK  111  A    between atoms: _265  and  _266
REMARK  112  A    between atoms: _265  and  _268
REMARK  113  A    between atoms: _268  and  _269
REMARK  114  A    between atoms: _269  and  _270
REMARK  115  A    between atoms: _270  and  _271
REMARK  116  A    between atoms: _281  and  _282
REMARK  117  A    between atoms: _287  and  _289
REMARK  118  A    between atoms: _289  and  _290
REMARK  119  A    between atoms: _289  and  _292
REMARK  120  A    between atoms: _292  and  _293
REMARK  121  A    between atoms: _293  and  _294
REMARK  122  A    between atoms: _297  and  _299
REMARK  123  A    between atoms: _299  and  _300
REMARK  124  A    between atoms: _299  and  _302
REMARK  125  A    between atoms: _305  and  _307
REMARK  126  A    between atoms: _307  and  _308
REMARK  127  A    between atoms: _307  and  _310
REMARK  128  A    between atoms: _310  and  _311
REMARK  129  A    between atoms: _311  and  _312
REMARK  130  A    between atoms: _317  and  _319
REMARK  131  A    between atoms: _319  and  _320
REMARK  132  A    between atoms: _319  and  _322
REMARK  133  A    between atoms: _322  and  _323
REMARK  134  A    between atoms: _326  and  _328
REMARK  135  A    between atoms: _328  and  _329
REMARK  136  A    between atoms: _328  and  _331
REMARK  137  A    between atoms: _331  and  _332
REMARK  138  A    between atoms: _338  and  _340
REMARK  139  A    between atoms: _340  and  _341
REMARK  140  A    between atoms: _340  and  _343
REMARK  141  A    between atoms: _343  and  _344
REMARK  142  A    between atoms: _347  and  _349
REMARK  143  A    between atoms: _349  and  _350
REMARK  144  A    between atoms: _349  and  _352
REMARK  145  A    between atoms: _352  and  _353
REMARK  146  A    between atoms: _353  and  _354
REMARK  147  A    between atoms: _354  and  _355
REMARK  148  A    between atoms: _355  and  _356
REMARK  149  A    between atoms: _360  and  _362
REMARK  150  A    between atoms: _362  and  _363
REMARK  151  A    between atoms: _362  and  _365
REMARK  152  A    between atoms: _365  and  _366
REMARK  153  A    between atoms: _369  and  _371
REMARK  154  A    between atoms: _371  and  _372
REMARK  155  A    between atoms: _371  and  _374
REMARK  156  A    between atoms: _374  and  _375
REMARK  157  A    between atoms: _375  and  _376
REMARK  158  A    between atoms: _379  and  _381
REMARK  159  A    between atoms: _381  and  _382
REMARK  160  A    between atoms: _381  and  _384
REMARK  161  A    between atoms: _384  and  _385
REMARK  162  A    between atoms: _390  and  _392
REMARK  163  A    between atoms: _392  and  _393
REMARK  164  A    between atoms: _392  and  _395
REMARK  165  A    between atoms: _395  and  _396
REMARK  166  A    between atoms: _399  and  _401
REMARK  167  A    between atoms: _401  and  _402
REMARK  168  A    between atoms: _401  and  _404
REMARK  169  A    between atoms: _404  and  _405
REMARK  170  A    between atoms: _408  and  _410
REMARK  171  A    between atoms: _410  and  _411
REMARK  172  A    between atoms: _410  and  _413
REMARK  173  A    between atoms: _413  and  _414
REMARK  174  A    between atoms: _417  and  _419
REMARK  175  A    between atoms: _419  and  _420
REMARK  176  A    between atoms: _419  and  _422
REMARK  177  A    between atoms: _422  and  _423
REMARK  178  A    between atoms: _423  and  _424
REMARK  179  A    between atoms: _424  and  _425
REMARK  180  A    between atoms: _425  and  _426
REMARK  181  A    between atoms: _430  and  _432
REMARK  182  A    between atoms: _432  and  _433
REMARK  183  A    between atoms: _432  and  _435
REMARK  184  A    between atoms: _435  and  _436
REMARK  185  A    between atoms: _439  and  _441
REMARK  186  A    between atoms: _441  and  _442
REMARK  187  A    between atoms: _441  and  _444
REMARK  188  A    between atoms: _444  and  _445
REMARK  189  A    between atoms: _448  and  _450
REMARK  190  A    between atoms: _450  and  _451
REMARK  191  A    between atoms: _450  and  _453
REMARK  192  A    between atoms: _453  and  _454
REMARK  193  A    between atoms: _457  and  _459
REMARK  194  A    between atoms: _459  and  _460
REMARK  195  A    between atoms: _459  and  _462
REMARK  196  A    between atoms: _462  and  _463
REMARK  197  A    between atoms: _469  and  _471
REMARK  198  A    between atoms: _471  and  _472
REMARK  199  A    between atoms: _474  and  _476
REMARK  200  A    between atoms: _476  and  _477
REMARK  201  A    between atoms: _476  and  _479
REMARK  202  A    between atoms: _479  and  _480
REMARK                            x       y       z     vdW  Elec       q    Type
REMARK                         _______ _______ _______ _____ _____    ______ ____
ROOT
ATOM      1  O   HOH     1     -21.329 -46.553  -6.719  0.00  0.00    +0.000 OA
ENDROOT
TORSDOF 0
REMARK  Name = ../refined-set-2016/1xws/1xws_pocket.pdb
REMARK  202 active torsions:
REMARK  status: ('A' for Active; 'I' for Inactive)
REMARK    1  A    between atoms: _1  and  _3
REMARK    2  A    between atoms: _3  and  _4
REMARK    3  A    between atoms: _3  and  _6
REMARK    4  A    between atoms: _6  and  _7
REMARK    5  A    between atoms: _10  and  _12
REMARK    6  A    between atoms: _12  and  _13
REMARK    7  A    between atoms: _12  and  _15
REMARK    8  A    between atoms: _15  and  _16
REMARK    9  A    between atoms: _19  and  _21
REMARK   10  A    between atoms: _21  and  _22
REMARK   11  A    between atoms: _24  and  _26
REMARK   12  A    between atoms: _26  and  _27
REMARK   13  A    between atoms: _26  and  _29
REMARK   14  A    between atoms: _29  and  _30
REMARK   15  A    between atoms: _32  and  _34
REMARK   16  A    between atoms: _34  and  _35
REMARK   17  A    between atoms: _37  and  _39
REMARK   18  A    between atoms: _39  and  _40
REMARK   19  A    between atoms: _42  and  _44
REMARK   20  A    between atoms: _44  and  _45
REMARK   21  A    between atoms: _44  and  _47
REMARK   22  A    between atoms: _47  and  _48
REMARK   23  A    between atoms: _54  and  _56
REMARK   24  A    between atoms: _56  and  _57
REMARK   25  A    between atoms: _59  and  _61
REMARK   26  A    between atoms: _61  and  _62
REMARK   27  A    between atoms: _61  and  _64
REMARK   28  A    between atoms: _64  and  _65
REMARK   29  A    between atoms: _67  and  _69
REMARK   30  A    between atoms: _69  and  _70
REMARK   31  A    between atoms: _69  and  _72
REMARK   32  A    between atoms: _75  and  _77
REMARK   33  A    between atoms: _77  and  _78
REMARK   34  A    between atoms: _77  and  _80
REMARK   35  A    between atoms: _80  and  _81
REMARK   36  A    between atoms: _86  and  _87
REMARK   37  A    between atoms: _89  and  _91
REMARK   38  A    between atoms: _91  and  _92
REMARK   39  A    between atoms: _91  and  _94
REMARK   40  A    between atoms: _94  and  _95
REMARK   41  A    between atoms: _97  and  _99
REMARK   42  A    between atoms: _99  and  _100
REMARK   43  A    between atoms: _103  and  _104
REMARK   44  A    between atoms: _109  and  _111
REMARK   45  A    between atoms: _111  and  _112
REMARK   46  A    between atoms: _111  and  _114
REMARK   47  A    between atoms: _117  and  _119
REMARK   48  A    between atoms: _119  and  _120
REMARK   49  A    between atoms: _123  and  _125
REMARK   50  A    between atoms: _125  and  _126
REMARK   51  A    between atoms: _125  and  _128
REMARK   52  A    between atoms: _128  and  _129
REMARK   53  A    between atoms: _132  and  _134
REMARK   54  A    between atoms: _134  and  _135
REMARK   55  A    between atoms: _134  and  _137
REMARK   56  A    between atoms: _137  and  _138
REMARK   57  A    between atoms: _138  and  _139
REMARK   58  A    between atoms: _139  and  _140
REMARK   59  A    between atoms: _140  and  _141
REMARK   60  A    between atoms: _145  and  _147
REMARK   61  A    between atoms: _147  and  _148
REMARK   62  A    between atoms: _147  and  _150
REMARK   63  A    between atoms: _150  and  _151
REMARK   64  A    between atoms: _156  and  _158
REMARK   65  A    between atoms: _158  and  _159
REMARK   66  A    between atoms: _158  and  _161
REMARK   67  A    between atoms: _164  and  _166
REMARK   68  A    between atoms: _166  and  _167
REMARK   69  A    between atoms: _166  and  _169
REMARK   70  A    between atoms: _169  and  _170
REMARK   71  A    between atoms: _170  and  _171
REMARK   72  A    between atoms: _174  and  _176
REMARK   73  A    between atoms: _176  and  _177
REMARK   74  A    between atoms: _176  and  _179
REMARK   75  A    between atoms: _179  and  _180
REMARK   76  A    between atoms: _183  and  _185
REMARK   77  A    between atoms: _185  and  _186
REMARK   78  A    between atoms: _185  and  _188
REMARK   79  A    between atoms: _191  and  _193
REMARK   80  A    between atoms: _193  and  _194
REMARK   81  A    between atoms: _193  and  _196
REMARK   82  A    between atoms: _196  and  _197
REMARK   83  A    between atoms: _200  and  _202
REMARK   84  A    between atoms: _202  and  _203
REMARK   85  A    between atoms: _202  and  _205
REMARK   86  A    between atoms: _205  and  _206
REMARK   87  A    between atoms: _206  and  _207
REMARK   88  A    between atoms: _207  and  _208
REMARK   89  A    between atoms: _217  and  _219
REMARK   90  A    between atoms: _219  and  _220
REMARK   91  A    between atoms: _219  and  _222
REMARK   92  A    between atoms: _222  and  _223
REMARK   93  A    between atoms: _226  and  _228
REMARK   94  A    between atoms: _228  and  _229
REMARK   95  A    between atoms: _228  and  _231
REMARK   96  A    between atoms: _231  and  _232
REMARK   97  A    between atoms: _235  and  _237
REMARK   98  A    between atoms: _237  and  _238
REMARK   99  A    between atoms: _237  and  _240
REMARK  100  A    between atoms: _240  and  _241
REMARK  101  A    between atoms: _244  and  _246
REMARK  102  A    between atoms: _246  and  _247
REMARK  103  A    between atoms: _246  and  _249
REMARK  104  A    between atoms: _249  and  _250
REMARK  105  A    between atoms: _253  and  _255
REMARK  106  A    between atoms: _255  and  _256
REMARK  107  A    between atoms: _255  and  _258
REMARK  108  A    between atoms: _258  and  _259
REMARK  109  A    between atoms: _259  and  _260
REMARK  110  A    between atoms: _263  and  _265
REMARK  111  A    between atoms: _265  and  _266
REMARK  112  A    between atoms: _265  and  _268
REMARK  113  A    between atoms: _268  and  _269
REMARK  114  A    between atoms: _269  and  _270
REMARK  115  A    between atoms: _270  and  _271
REMARK  116  A    between atoms: _281  and  _282
REMARK  117  A    between atoms: _287  and  _289
REMARK  118  A    between atoms: _289  and  _290
REMARK  119  A    between atoms: _289  and  _292
REMARK  120  A    between atoms: _292  and  _293
REMARK  121  A    between atoms: _293  and  _294
REMARK  122  A    between atoms: _297  and  _299
REMARK  123  A    between atoms: _299  and  _300
REMARK  124  A    between atoms: _299  and  _302
REMARK  125  A    between atoms: _305  and  _307
REMARK  126  A    between atoms: _307  and  _308
REMARK  127  A    between atoms: _307  and  _310
REMARK  128  A    between atoms: _310  and  _311
REMARK  129  A    between atoms: _311  and  _312
REMARK  130  A    between atoms: _317  and  _319
REMARK  131  A    between atoms: _319  and  _320
REMARK  132  A    between atoms: _319  and  _322
REMARK  133  A    between atoms: _322  and  _323
REMARK  134  A    between atoms: _326  and  _328
REMARK  135  A    between atoms: _328  and  _329
REMARK  136  A    between atoms: _328  and  _331
REMARK  137  A    between atoms: _331  and  _332
REMARK  138  A    between atoms: _338  and  _340
REMARK  139  A    between atoms: _340  and  _341
REMARK  140  A    between atoms: _340  and  _343
REMARK  141  A    between atoms: _343  and  _344
REMARK  142  A    between atoms: _347  and  _349
REMARK  143  A    between atoms: _349  and  _350
REMARK  144  A    between atoms: _349  and  _352
REMARK  145  A    between atoms: _352  and  _353
REMARK  146  A    between atoms: _353  and  _354
REMARK  147  A    between atoms: _354  and  _355
REMARK  148  A    between atoms: _355  and  _356
REMARK  149  A    between atoms: _360  and  _362
REMARK  150  A    between atoms: _362  and  _363
REMARK  151  A    between atoms: _362  and  _365
REMARK  152  A    between atoms: _365  and  _366
REMARK  153  A    between atoms: _369  and  _371
REMARK  154  A    between atoms: _371  and  _372
REMARK  155  A    between atoms: _371  and  _374
REMARK  156  A    between atoms: _374  and  _375
REMARK  157  A    between atoms: _375  and  _376
REMARK  158  A    between atoms: _379  and  _381
REMARK  159  A    between atoms: _381  and  _382
REMARK  160  A    between atoms: _381  and  _384
REMARK  161  A    between atoms: _384  and  _385
REMARK  162  A    between atoms: _390  and  _392
REMARK  163  A    between atoms: _392  and  _393
REMARK  164  A    between atoms: _392  and  _395
REMARK  165  A    between atoms: _395  and  _396
REMARK  166  A    between atoms: _399  and  _401
REMARK  167  A    between atoms: _401  and  _402
REMARK  168  A    between atoms: _401  and  _404
REMARK  169  A    between atoms: _404  and  _405
REMARK  170  A    between atoms: _408  and  _410
REMARK  171  A    between atoms: _410  and  _411
REMARK  172  A    between atoms: _410  and  _413
REMARK  173  A    between atoms: _413  and  _414
REMARK  174  A    between atoms: _417  and  _419
REMARK  175  A    between atoms: _419  and  _420
REMARK  176  A    between atoms: _419  and  _422
REMARK  177  A    between atoms: _422  and  _423
REMARK  178  A    between atoms: _423  and  _424
REMARK  179  A    between atoms: _424  and  _425
REMARK  180  A    between atoms: _425  and  _426
REMARK  181  A    between atoms: _430  and  _432
REMARK  182  A    between atoms: _432  and  _433
REMARK  183  A    between atoms: _432  and  _435
REMARK  184  A    between atoms: _435  and  _436
REMARK  185  A    between atoms: _439  and  _441
REMARK  186  A    between atoms: _441  and  _442
REMARK  187  A    between atoms: _441  and  _444
REMARK  188  A    between atoms: _444  and  _445
REMARK  189  A    between atoms: _448  and  _450
REMARK  190  A    between atoms: _450  and  _451
REMARK  191  A    between atoms: _450  and  _453
REMARK  192  A    between atoms: _453  and  _454
REMARK  193  A    between atoms: _457  and  _459
REMARK  194  A    between atoms: _459  and  _460
REMARK  195  A    between atoms: _459  and  _462
REMARK  196  A    between atoms: _462  and  _463
REMARK  197  A    between atoms: _469  and  _471
REMARK  198  A    between atoms: _471  and  _472
REMARK  199  A    between atoms: _474  and  _476
REMARK  200  A    between atoms: _476  and  _477
REMARK  201  A    between atoms: _476  and  _479
REMARK  202  A    between atoms: _479  and  _480
REMARK                            x       y       z     vdW  Elec       q    Type
REMARK                         _______ _______ _______ _____ _____    ______ ____
ROOT
ATOM      1  O   HOH     1     -16.332 -33.119   7.013  0.00  0.00    +0.000 OA
ENDROOT
TORSDOF 0
REMARK  Name = ../refined-set-2016/1xws/1xws_pocket.pdb
REMARK  202 active torsions:
REMARK  status: ('A' for Active; 'I' for Inactive)
REMARK    1  A    between atoms: _1  and  _3
REMARK    2  A    between atoms: _3  and  _4
REMARK    3  A    between atoms: _3  and  _6
REMARK    4  A    between atoms: _6  and  _7
REMARK    5  A    between atoms: _10  and  _12
REMARK    6  A    between atoms: _12  and  _13
REMARK    7  A    between atoms: _12  and  _15
REMARK    8  A    between atoms: _15  and  _16
REMARK    9  A    between atoms: _19  and  _21
REMARK   10  A    between atoms: _21  and  _22
REMARK   11  A    between atoms: _24  and  _26
REMARK   12  A    between atoms: _26  and  _27
REMARK   13  A    between atoms: _26  and  _29
REMARK   14  A    between atoms: _29  and  _30
REMARK   15  A    between atoms: _32  and  _34
REMARK   16  A    between atoms: _34  and  _35
REMARK   17  A    between atoms: _37  and  _39
REMARK   18  A    between atoms: _39  and  _40
REMARK   19  A    between atoms: _42  and  _44
REMARK   20  A    between atoms: _44  and  _45
REMARK   21  A    between atoms: _44  and  _47
REMARK   22  A    between atoms: _47  and  _48
REMARK   23  A    between atoms: _54  and  _56
REMARK   24  A    between atoms: _56  and  _57
REMARK   25  A    between atoms: _59  and  _61
REMARK   26  A    between atoms: _61  and  _62
REMARK   27  A    between atoms: _61  and  _64
REMARK   28  A    between atoms: _64  and  _65
REMARK   29  A    between atoms: _67  and  _69
REMARK   30  A    between atoms: _69  and  _70
REMARK   31  A    between atoms: _69  and  _72
REMARK   32  A    between atoms: _75  and  _77
REMARK   33  A    between atoms: _77  and  _78
REMARK   34  A    between atoms: _77  and  _80
REMARK   35  A    between atoms: _80  and  _81
REMARK   36  A    between atoms: _86  and  _87
REMARK   37  A    between atoms: _89  and  _91
REMARK   38  A    between atoms: _91  and  _92
REMARK   39  A    between atoms: _91  and  _94
REMARK   40  A    between atoms: _94  and  _95
REMARK   41  A    between atoms: _97  and  _99
REMARK   42  A    between atoms: _99  and  _100
REMARK   43  A    between atoms: _103  and  _104
REMARK   44  A    between atoms: _109  and  _111
REMARK   45  A    between atoms: _111  and  _112
REMARK   46  A    between atoms: _111  and  _114
REMARK   47  A    between atoms: _117  and  _119
REMARK   48  A    between atoms: _119  and  _120
REMARK   49  A    between atoms: _123  and  _125
REMARK   50  A    between atoms: _125  and  _126
REMARK   51  A    between atoms: _125  and  _128
REMARK   52  A    between atoms: _128  and  _129
REMARK   53  A    between atoms: _132  and  _134
REMARK   54  A    between atoms: _134  and  _135
REMARK   55  A    between atoms: _134  and  _137
REMARK   56  A    between atoms: _137  and  _138
REMARK   57  A    between atoms: _138  and  _139
REMARK   58  A    between atoms: _139  and  _140
REMARK   59  A    between atoms: _140  and  _141
REMARK   60  A    between atoms: _145  and  _147
REMARK   61  A    between atoms: _147  and  _148
REMARK   62  A    between atoms: _147  and  _150
REMARK   63  A    between atoms: _150  and  _151
REMARK   64  A    between atoms: _156  and  _158
REMARK   65  A    between atoms: _158  and  _159
REMARK   66  A    between atoms: _158  and  _161
REMARK   67  A    between atoms: _164  and  _166
REMARK   68  A    between atoms: _166  and  _167
REMARK   69  A    between atoms: _166  and  _169
REMARK   70  A    between atoms: _169  and  _170
REMARK   71  A    between atoms: _170  and  _171
REMARK   72  A    between atoms: _174  and  _176
REMARK   73  A    between atoms: _176  and  _177
REMARK   74  A    between atoms: _176  and  _179
REMARK   75  A    between atoms: _179  and  _180
REMARK   76  A    between atoms: _183  and  _185
REMARK   77  A    between atoms: _185  and  _186
REMARK   78  A    between atoms: _185  and  _188
REMARK   79  A    between atoms: _191  and  _193
REMARK   80  A    between atoms: _193  and  _194
REMARK   81  A    between atoms: _193  and  _196
REMARK   82  A    between atoms: _196  and  _197
REMARK   83  A    between atoms: _200  and  _202
REMARK   84  A    between atoms: _202  and  _203
REMARK   85  A    between atoms: _202  and  _205
REMARK   86  A    between atoms: _205  and  _206
REMARK   87  A    between atoms: _206  and  _207
REMARK   88  A    between atoms: _207  and  _208
REMARK   89  A    between atoms: _217  and  _219
REMARK   90  A    between atoms: _219  and  _220
REMARK   91  A    between atoms: _219  and  _222
REMARK   92  A    between atoms: _222  and  _223
REMARK   93  A    between atoms: _226  and  _228
REMARK   94  A    between atoms: _228  and  _229
REMARK   95  A    between atoms: _228  and  _231
REMARK   96  A    between atoms: _231  and  _232
REMARK   97  A    between atoms: _235  and  _237
REMARK   98  A    between atoms: _237  and  _238
REMARK   99  A    between atoms: _237  and  _240
REMARK  100  A    between atoms: _240  and  _241
REMARK  101  A    between atoms: _244  and  _246
REMARK  102  A    between atoms: _246  and  _247
REMARK  103  A    between atoms: _246  and  _249
REMARK  104  A    between atoms: _249  and  _250
REMARK  105  A    between atoms: _253  and  _255
REMARK  106  A    between atoms: _255  and  _256
REMARK  107  A    between atoms: _255  and  _258
REMARK  108  A    between atoms: _258  and  _259
REMARK  109  A    between atoms: _259  and  _260
REMARK  110  A    between atoms: _263  and  _265
REMARK  111  A    between atoms: _265  and  _266
REMARK  112  A    between atoms: _265  and  _268
REMARK  113  A    between atoms: _268  and  _269
REMARK  114  A    between atoms: _269  and  _270
REMARK  115  A    between atoms: _270  and  _271
REMARK  116  A    between atoms: _281  and  _282
REMARK  117  A    between atoms: _287  and  _289
REMARK  118  A    between atoms: _289  and  _290
REMARK  119  A    between atoms: _289  and  _292
REMARK  120  A    between atoms: _292  and  _293
REMARK  121  A    between atoms: _293  and  _294
REMARK  122  A    between atoms: _297  and  _299
REMARK  123  A    between atoms: _299  and  _300
REMARK  124  A    between atoms: _299  and  _302
REMARK  125  A    between atoms: _305  and  _307
REMARK  126  A    between atoms: _307  and  _308
REMARK  127  A    between atoms: _307  and  _310
REMARK  128  A    between atoms: _310  and  _311
REMARK  129  A    between atoms: _311  and  _312
REMARK  130  A    between atoms: _317  and  _319
REMARK  131  A    between atoms: _319  and  _320
REMARK  132  A    between atoms: _319  and  _322
REMARK  133  A    between atoms: _322  and  _323
REMARK  134  A    between atoms: _326  and  _328
REMARK  135  A    between atoms: _328  and  _329
REMARK  136  A    between atoms: _328  and  _331
REMARK  137  A    between atoms: _331  and  _332
REMARK  138  A    between atoms: _338  and  _340
REMARK  139  A    between atoms: _340  and  _341
REMARK  140  A    between atoms: _340  and  _343
REMARK  141  A    between atoms: _343  and  _344
REMARK  142  A    between atoms: _347  and  _349
REMARK  143  A    between atoms: _349  and  _350
REMARK  144  A    between atoms: _349  and  _352
REMARK  145  A    between atoms: _352  and  _353
REMARK  146  A    between atoms: _353  and  _354
REMARK  147  A    between atoms: _354  and  _355
REMARK  148  A    between atoms: _355  and  _356
REMARK  149  A    between atoms: _360  and  _362
REMARK  150  A    between atoms: _362  and  _363
REMARK  151  A    between atoms: _362  and  _365
REMARK  152  A    between atoms: _365  and  _366
REMARK  153  A    between atoms: _369  and  _371
REMARK  154  A    between atoms: _371  and  _372
REMARK  155  A    between atoms: _371  and  _374
REMARK  156  A    between atoms: _374  and  _375
REMARK  157  A    between atoms: _375  and  _376
REMARK  158  A    between atoms: _379  and  _381
REMARK  159  A    between atoms: _381  and  _382
REMARK  160  A    between atoms: _381  and  _384
REMARK  161  A    between atoms: _384  and  _385
REMARK  162  A    between atoms: _390  and  _392
REMARK  163  A    between atoms: _392  and  _393
REMARK  164  A    between atoms: _392  and  _395
REMARK  165  A    between atoms: _395  and  _396
REMARK  166  A    between atoms: _399  and  _401
REMARK  167  A    between atoms: _401  and  _402
REMARK  168  A    between atoms: _401  and  _404
REMARK  169  A    between atoms: _404  and  _405
REMARK  170  A    between atoms: _408  and  _410
REMARK  171  A    between atoms: _410  and  _411
REMARK  172  A    between atoms: _410  and  _413
REMARK  173  A    between atoms: _413  and  _414
REMARK  174  A    between atoms: _417  and  _419
REMARK  175  A    between atoms: _419  and  _420
REMARK  176  A    between atoms: _419  and  _422
REMARK  177  A    between atoms: _422  and  _423
REMARK  178  A    between atoms: _423  and  _424
REMARK  179  A    between atoms: _424  and  _425
REMARK  180  A    between atoms: _425  and  _426
REMARK  181  A    between atoms: _430  and  _432
REMARK  182  A    between atoms: _432  and  _433
REMARK  183  A    between atoms: _432  and  _435
REMARK  184  A    between atoms: _435  and  _436
REMARK  185  A    between atoms: _439  and  _441
REMARK  186  A    between atoms: _441  and  _442
REMARK  187  A    between atoms: _441  and  _444
REMARK  188  A    between atoms: _444  and  _445
REMARK  189  A    between atoms: _448  and  _450
REMARK  190  A    between atoms: _450  and  _451
REMARK  191  A    between atoms: _450  and  _453
REMARK  192  A    between atoms: _453  and  _454
REMARK  193  A    between atoms: _457  and  _459
REMARK  194  A    between atoms: _459  and  _460
REMARK  195  A    between atoms: _459  and  _462
REMARK  196  A    between atoms: _462  and  _463
REMARK  197  A    between atoms: _469  and  _471
REMARK  198  A    between atoms: _471  and  _472
REMARK  199  A    between atoms: _474  and  _476
REMARK  200  A    between atoms: _476  and  _477
REMARK  201  A    between atoms: _476  and  _479
REMARK  202  A    between atoms: _479  and  _480
REMARK                            x       y       z     vdW  Elec       q    Type
REMARK                         _______ _______ _______ _____ _____    ______ ____
ROOT
ATOM      1  O   HOH     1     -13.122 -27.210  -6.007  0.00  0.00    +0.000 OA
ENDROOT
TORSDOF 0
REMARK  Name = ../refined-set-2016/1xws/1xws_pocket.pdb
REMARK  202 active torsions:
REMARK  status: ('A' for Active; 'I' for Inactive)
REMARK    1  A    between atoms: _1  and  _3
REMARK    2  A    between atoms: _3  and  _4
REMARK    3  A    between atoms: _3  and  _6
REMARK    4  A    between atoms: _6  and  _7
REMARK    5  A    between atoms: _10  and  _12
REMARK    6  A    between atoms: _12  and  _13
REMARK    7  A    between atoms: _12  and  _15
REMARK    8  A    between atoms: _15  and  _16
REMARK    9  A    between atoms: _19  and  _21
REMARK   10  A    between atoms: _21  and  _22
REMARK   11  A    between atoms: _24  and  _26
REMARK   12  A    between atoms: _26  and  _27
REMARK   13  A    between atoms: _26  and  _29
REMARK   14  A    between atoms: _29  and  _30
REMARK   15  A    between atoms: _32  and  _34
REMARK   16  A    between atoms: _34  and  _35
REMARK   17  A    between atoms: _37  and  _39
REMARK   18  A    between atoms: _39  and  _40
REMARK   19  A    between atoms: _42  and  _44
REMARK   20  A    between atoms: _44  and  _45
REMARK   21  A    between atoms: _44  and  _47
REMARK   22  A    between atoms: _47  and  _48
REMARK   23  A    between atoms: _54  and  _56
REMARK   24  A    between atoms: _56  and  _57
REMARK   25  A    between atoms: _59  and  _61
REMARK   26  A    between atoms: _61  and  _62
REMARK   27  A    between atoms: _61  and  _64
REMARK   28  A    between atoms: _64  and  _65
REMARK   29  A    between atoms: _67  and  _69
REMARK   30  A    between atoms: _69  and  _70
REMARK   31  A    between atoms: _69  and  _72
REMARK   32  A    between atoms: _75  and  _77
REMARK   33  A    between atoms: _77  and  _78
REMARK   34  A    between atoms: _77  and  _80
REMARK   35  A    between atoms: _80  and  _81
REMARK   36  A    between atoms: _86  and  _87
REMARK   37  A    between atoms: _89  and  _91
REMARK   38  A    between atoms: _91  and  _92
REMARK   39  A    between atoms: _91  and  _94
REMARK   40  A    between atoms: _94  and  _95
REMARK   41  A    between atoms: _97  and  _99
REMARK   42  A    between atoms: _99  and  _100
REMARK   43  A    between atoms: _103  and  _104
REMARK   44  A    between atoms: _109  and  _111
REMARK   45  A    between atoms: _111  and  _112
REMARK   46  A    between atoms: _111  and  _114
REMARK   47  A    between atoms: _117  and  _119
REMARK   48  A    between atoms: _119  and  _120
REMARK   49  A    between atoms: _123  and  _125
REMARK   50  A    between atoms: _125  and  _126
REMARK   51  A    between atoms: _125  and  _128
REMARK   52  A    between atoms: _128  and  _129
REMARK   53  A    between atoms: _132  and  _134
REMARK   54  A    between atoms: _134  and  _135
REMARK   55  A    between atoms: _134  and  _137
REMARK   56  A    between atoms: _137  and  _138
REMARK   57  A    between atoms: _138  and  _139
REMARK   58  A    between atoms: _139  and  _140
REMARK   59  A    between atoms: _140  and  _141
REMARK   60  A    between atoms: _145  and  _147
REMARK   61  A    between atoms: _147  and  _148
REMARK   62  A    between atoms: _147  and  _150
REMARK   63  A    between atoms: _150  and  _151
REMARK   64  A    between atoms: _156  and  _158
REMARK   65  A    between atoms: _158  and  _159
REMARK   66  A    between atoms: _158  and  _161
REMARK   67  A    between atoms: _164  and  _166
REMARK   68  A    between atoms: _166  and  _167
REMARK   69  A    between atoms: _166  and  _169
REMARK   70  A    between atoms: _169  and  _170
REMARK   71  A    between atoms: _170  and  _171
REMARK   72  A    between atoms: _174  and  _176
REMARK   73  A    between atoms: _176  and  _177
REMARK   74  A    between atoms: _176  and  _179
REMARK   75  A    between atoms: _179  and  _180
REMARK   76  A    between atoms: _183  and  _185
REMARK   77  A    between atoms: _185  and  _186
REMARK   78  A    between atoms: _185  and  _188
REMARK   79  A    between atoms: _191  and  _193
REMARK   80  A    between atoms: _193  and  _194
REMARK   81  A    between atoms: _193  and  _196
REMARK   82  A    between atoms: _196  and  _197
REMARK   83  A    between atoms: _200  and  _202
REMARK   84  A    between atoms: _202  and  _203
REMARK   85  A    between atoms: _202  and  _205
REMARK   86  A    between atoms: _205  and  _206
REMARK   87  A    between atoms: _206  and  _207
REMARK   88  A    between atoms: _207  and  _208
REMARK   89  A    between atoms: _217  and  _219
REMARK   90  A    between atoms: _219  and  _220
REMARK   91  A    between atoms: _219  and  _222
REMARK   92  A    between atoms: _222  and  _223
REMARK   93  A    between atoms: _226  and  _228
REMARK   94  A    between atoms: _228  and  _229
REMARK   95  A    between atoms: _228  and  _231
REMARK   96  A    between atoms: _231  and  _232
REMARK   97  A    between atoms: _235  and  _237
REMARK   98  A    between atoms: _237  and  _238
REMARK   99  A    between atoms: _237  and  _240
REMARK  100  A    between atoms: _240  and  _241
REMARK  101  A    between atoms: _244  and  _246
REMARK  102  A    between atoms: _246  and  _247
REMARK  103  A    between atoms: _246  and  _249
REMARK  104  A    between atoms: _249  and  _250
REMARK  105  A    between atoms: _253  and  _255
REMARK  106  A    between atoms: _255  and  _256
REMARK  107  A    between atoms: _255  and  _258
REMARK  108  A    between atoms: _258  and  _259
REMARK  109  A    between atoms: _259  and  _260
REMARK  110  A    between atoms: _263  and  _265
REMARK  111  A    between atoms: _265  and  _266
REMARK  112  A    between atoms: _265  and  _268
REMARK  113  A    between atoms: _268  and  _269
REMARK  114  A    between atoms: _269  and  _270
REMARK  115  A    between atoms: _270  and  _271
REMARK  116  A    between atoms: _281  and  _282
REMARK  117  A    between atoms: _287  and  _289
REMARK  118  A    between atoms: _289  and  _290
REMARK  119  A    between atoms: _289  and  _292
REMARK  120  A    between atoms: _292  and  _293
REMARK  121  A    between atoms: _293  and  _294
REMARK  122  A    between atoms: _297  and  _299
REMARK  123  A    between atoms: _299  and  _300
REMARK  124  A    between atoms: _299  and  _302
REMARK  125  A    between atoms: _305  and  _307
REMARK  126  A    between atoms: _307  and  _308
REMARK  127  A    between atoms: _307  and  _310
REMARK  128  A    between atoms: _310  and  _311
REMARK  129  A    between atoms: _311  and  _312
REMARK  130  A    between atoms: _317  and  _319
REMARK  131  A    between atoms: _319  and  _320
REMARK  132  A    between atoms: _319  and  _322
REMARK  133  A    between atoms: _322  and  _323
REMARK  134  A    between atoms: _326  and  _328
REMARK  135  A    between atoms: _328  and  _329
REMARK  136  A    between atoms: _328  and  _331
REMARK  137  A    between atoms: _331  and  _332
REMARK  138  A    between atoms: _338  and  _340
REMARK  139  A    between atoms: _340  and  _341
REMARK  140  A    between atoms: _340  and  _343
REMARK  141  A    between atoms: _343  and  _344
REMARK  142  A    between atoms: _347  and  _349
REMARK  143  A    between atoms: _349  and  _350
REMARK  144  A    between atoms: _349  and  _352
REMARK  145  A    between atoms: _352  and  _353
REMARK  146  A    between atoms: _353  and  _354
REMARK  147  A    between atoms: _354  and  _355
REMARK  148  A    between atoms: _355  and  _356
REMARK  149  A    between atoms: _360  and  _362
REMARK  150  A    between atoms: _362  and  _363
REMARK  151  A    between atoms: _362  and  _365
REMARK  152  A    between atoms: _365  and  _366
REMARK  153  A    between atoms: _369  and  _371
REMARK  154  A    between atoms: _371  and  _372
REMARK  155  A    between atoms: _371  and  _374
REMARK  156  A    between atoms: _374  and  _375
REMARK  157  A    between atoms: _375  and  _376
REMARK  158  A    between atoms: _379  and  _381
REMARK  159  A    between atoms: _381  and  _382
REMARK  160  A    between atoms: _381  and  _384
REMARK  161  A    between atoms: _384  and  _385
REMARK  162  A    between atoms: _390  and  _392
REMARK  163  A    between atoms: _392  and  _393
REMARK  164  A    between atoms: _392  and  _395
REMARK  165  A    between atoms: _395  and  _396
REMARK  166  A    between atoms: _399  and  _401
REMARK  167  A    between atoms: _401  and  _402
REMARK  168  A    between atoms: _401  and  _404
REMARK  169  A    between atoms: _404  and  _405
REMARK  170  A    between atoms: _408  and  _410
REMARK  171  A    between atoms: _410  and  _411
REMARK  172  A    between atoms: _410  and  _413
REMARK  173  A    between atoms: _413  and  _414
REMARK  174  A    between atoms: _417  and  _419
REMARK  175  A    between atoms: _419  and  _420
REMARK  176  A    between atoms: _419  and  _422
REMARK  177  A    between atoms: _422  and  _423
REMARK  178  A    between atoms: _423  and  _424
REMARK  179  A    between atoms: _424  and  _425
REMARK  180  A    between atoms: _425  and  _426
REMARK  181  A    between atoms: _430  and  _432
REMARK  182  A    between atoms: _432  and  _433
REMARK  183  A    between atoms: _432  and  _435
REMARK  184  A    between atoms: _435  and  _436
REMARK  185  A    between atoms: _439  and  _441
REMARK  186  A    between atoms: _441  and  _442
REMARK  187  A    between atoms: _441  and  _444
REMARK  188  A    between atoms: _444  and  _445
REMARK  189  A    between atoms: _448  and  _450
REMARK  190  A    between atoms: _450  and  _451
REMARK  191  A    between atoms: _450  and  _453
REMARK  192  A    between atoms: _453  and  _454
REMARK  193  A    between atoms: _457  and  _459
REMARK  194  A    between atoms: _459  and  _460
REMARK  195  A    between atoms: _459  and  _462
REMARK  196  A    between atoms: _462  and  _463
REMARK  197  A    between atoms: _469  and  _471
REMARK  198  A    between atoms: _471  and  _472
REMARK  199  A    between atoms: _474  and  _476
REMARK  200  A    between atoms: _476  and  _477
REMARK  201  A    between atoms: _476  and  _479
REMARK  202  A    between atoms: _479  and  _480
REMARK                            x       y       z     vdW  Elec       q    Type
REMARK                         _______ _______ _______ _____ _____    ______ ____
ROOT
ATOM      1  O   HOH     1     -11.404 -30.683   2.949  0.00  0.00    +0.000 OA
ENDROOT
TORSDOF 0
