REMARK  Name = ../refined-set-2016/2cli/2cli_pocket.pdb
REMARK  216 active torsions:
REMARK  status: ('A' for Active; 'I' for Inactive)
REMARK    1  A    between atoms: _1  and  _3
REMARK    2  A    between atoms: _3  and  _4
REMARK    3  A    between atoms: _3  and  _6
REMARK    4  A    between atoms: _10  and  _11
REMARK    5  A    between atoms: _16  and  _18
REMARK    6  A    between atoms: _18  and  _19
REMARK    7  A    between atoms: _18  and  _21
REMARK    8  A    between atoms: _21  and  _22
REMARK    9  A    between atoms: _28  and  _30
REMARK   10  A    between atoms: _30  and  _31
REMARK   11  A    between atoms: _30  and  _33
REMARK   12  A    between atoms: _36  and  _38
REMARK   13  A    between atoms: _38  and  _39
REMARK   14  A    between atoms: _38  and  _41
REMARK   15  A    between atoms: _41  and  _42
REMARK   16  A    between atoms: _45  and  _47
REMARK   17  A    between atoms: _47  and  _48
REMARK   18  A    between atoms: _47  and  _50
REMARK   19  A    between atoms: _50  and  _51
REMARK   20  A    between atoms: _54  and  _56
REMARK   21  A    between atoms: _56  and  _57
REMARK   22  A    between atoms: _56  and  _59
REMARK   23  A    between atoms: _59  and  _60
REMARK   24  A    between atoms: _60  and  _61
REMARK   25  A    between atoms: _64  and  _66
REMARK   26  A    between atoms: _66  and  _67
REMARK   27  A    between atoms: _66  and  _69
REMARK   28  A    between atoms: _69  and  _70
REMARK   29  A    between atoms: _73  and  _75
REMARK   30  A    between atoms: _75  and  _76
REMARK   31  A    between atoms: _78  and  _80
REMARK   32  A    between atoms: _80  and  _81
REMARK   33  A    between atoms: _80  and  _83
REMARK   34  A    between atoms: _83  and  _84
REMARK   35  A    between atoms: _87  and  _89
REMARK   36  A    between atoms: _89  and  _90
REMARK   37  A    between atoms: _93  and  _95
REMARK   38  A    between atoms: _95  and  _96
REMARK   39  A    between atoms: _95  and  _98
REMARK   40  A    between atoms: _98  and  _99
REMARK   41  A    between atoms: _102  and  _104
REMARK   42  A    between atoms: _104  and  _105
REMARK   43  A    between atoms: _107  and  _109
REMARK   44  A    between atoms: _109  and  _110
REMARK   45  A    between atoms: _109  and  _112
REMARK   46  A    between atoms: _112  and  _113
REMARK   47  A    between atoms: _116  and  _118
REMARK   48  A    between atoms: _118  and  _119
REMARK   49  A    between atoms: _118  and  _121
REMARK   50  A    between atoms: _121  and  _122
REMARK   51  A    between atoms: _125  and  _127
REMARK   52  A    between atoms: _127  and  _128
REMARK   53  A    between atoms: _130  and  _132
REMARK   54  A    between atoms: _132  and  _133
REMARK   55  A    between atoms: _132  and  _135
REMARK   56  A    between atoms: _135  and  _136
REMARK   57  A    between atoms: _139  and  _141
REMARK   58  A    between atoms: _141  and  _142
REMARK   59  A    between atoms: _141  and  _144
REMARK   60  A    between atoms: _144  and  _145
REMARK   61  A    between atoms: _148  and  _150
REMARK   62  A    between atoms: _150  and  _151
REMARK   63  A    between atoms: _150  and  _153
REMARK   64  A    between atoms: _153  and  _154
REMARK   65  A    between atoms: _154  and  _155
REMARK   66  A    between atoms: _157  and  _159
REMARK   67  A    between atoms: _159  and  _160
REMARK   68  A    between atoms: _159  and  _162
REMARK   69  A    between atoms: _162  and  _163
REMARK   70  A    between atoms: _168  and  _169
REMARK   71  A    between atoms: _171  and  _173
REMARK   72  A    between atoms: _173  and  _174
REMARK   73  A    between atoms: _173  and  _176
REMARK   74  A    between atoms: _176  and  _177
REMARK   75  A    between atoms: _180  and  _182
REMARK   76  A    between atoms: _182  and  _183
REMARK   77  A    between atoms: _182  and  _185
REMARK   78  A    between atoms: _188  and  _190
REMARK   79  A    between atoms: _190  and  _191
REMARK   80  A    between atoms: _194  and  _196
REMARK   81  A    between atoms: _196  and  _197
REMARK   82  A    between atoms: _196  and  _199
REMARK   83  A    between atoms: _199  and  _200
REMARK   84  A    between atoms: _203  and  _205
REMARK   85  A    between atoms: _205  and  _206
REMARK   86  A    between atoms: _205  and  _208
REMARK   87  A    between atoms: _212  and  _213
REMARK   88  A    between atoms: _218  and  _220
REMARK   89  A    between atoms: _220  and  _221
REMARK   90  A    between atoms: _220  and  _223
REMARK   91  A    between atoms: _223  and  _224
REMARK   92  A    between atoms: _227  and  _229
REMARK   93  A    between atoms: _229  and  _230
REMARK   94  A    between atoms: _229  and  _232
REMARK   95  A    between atoms: _232  and  _233
REMARK   96  A    between atoms: _239  and  _241
REMARK   97  A    between atoms: _241  and  _242
REMARK   98  A    between atoms: _241  and  _244
REMARK   99  A    between atoms: _244  and  _245
REMARK  100  A    between atoms: _248  and  _250
REMARK  101  A    between atoms: _250  and  _251
REMARK  102  A    between atoms: _250  and  _253
REMARK  103  A    between atoms: _256  and  _257
REMARK  104  A    between atoms: _262  and  _264
REMARK  105  A    between atoms: _264  and  _265
REMARK  106  A    between atoms: _264  and  _267
REMARK  107  A    between atoms: _267  and  _268
REMARK  108  A    between atoms: _273  and  _274
REMARK  109  A    between atoms: _276  and  _278
REMARK  110  A    between atoms: _278  and  _279
REMARK  111  A    between atoms: _278  and  _281
REMARK  112  A    between atoms: _281  and  _282
REMARK  113  A    between atoms: _287  and  _288
REMARK  114  A    between atoms: _290  and  _292
REMARK  115  A    between atoms: _292  and  _293
REMARK  116  A    between atoms: _292  and  _295
REMARK  117  A    between atoms: _295  and  _296
REMARK  118  A    between atoms: _299  and  _301
REMARK  119  A    between atoms: _301  and  _302
REMARK  120  A    between atoms: _301  and  _304
REMARK  121  A    between atoms: _304  and  _305
REMARK  122  A    between atoms: _307  and  _309
REMARK  123  A    between atoms: _309  and  _310
REMARK  124  A    between atoms: _309  and  _312
REMARK  125  A    between atoms: _312  and  _313
REMARK  126  A    between atoms: _313  and  _314
REMARK  127  A    between atoms: _314  and  _315
REMARK  128  A    between atoms: _324  and  _326
REMARK  129  A    between atoms: _326  and  _327
REMARK  130  A    between atoms: _329  and  _331
REMARK  131  A    between atoms: _331  and  _332
REMARK  132  A    between atoms: _331  and  _334
REMARK  133  A    between atoms: _337  and  _339
REMARK  134  A    between atoms: _339  and  _340
REMARK  135  A    between atoms: _339  and  _342
REMARK  136  A    between atoms: _342  and  _343
REMARK  137  A    between atoms: _346  and  _348
REMARK  138  A    between atoms: _348  and  _349
REMARK  139  A    between atoms: _351  and  _353
REMARK  140  A    between atoms: _353  and  _354
REMARK  141  A    between atoms: _353  and  _356
REMARK  142  A    between atoms: _356  and  _357
REMARK  143  A    between atoms: _360  and  _362
REMARK  144  A    between atoms: _362  and  _363
REMARK  145  A    between atoms: _362  and  _365
REMARK  146  A    between atoms: _365  and  _366
REMARK  147  A    between atoms: _366  and  _367
REMARK  148  A    between atoms: _372  and  _374
REMARK  149  A    between atoms: _374  and  _375
REMARK  150  A    between atoms: _377  and  _379
REMARK  151  A    between atoms: _379  and  _380
REMARK  152  A    between atoms: _379  and  _382
REMARK  153  A    between atoms: _382  and  _383
REMARK  154  A    between atoms: _389  and  _391
REMARK  155  A    between atoms: _391  and  _392
REMARK  156  A    between atoms: _394  and  _396
REMARK  157  A    between atoms: _396  and  _397
REMARK  158  A    between atoms: _396  and  _399
REMARK  159  A    between atoms: _399  and  _400
REMARK  160  A    between atoms: _403  and  _405
REMARK  161  A    between atoms: _405  and  _406
REMARK  162  A    between atoms: _405  and  _408
REMARK  163  A    between atoms: _408  and  _409
REMARK  164  A    between atoms: _411  and  _413
REMARK  165  A    between atoms: _413  and  _414
REMARK  166  A    between atoms: _413  and  _416
REMARK  167  A    between atoms: _416  and  _417
REMARK  168  A    between atoms: _417  and  _418
REMARK  169  A    between atoms: _423  and  _425
REMARK  170  A    between atoms: _425  and  _426
REMARK  171  A    between atoms: _429  and  _431
REMARK  172  A    between atoms: _431  and  _432
REMARK  173  A    between atoms: _431  and  _434
REMARK  174  A    between atoms: _434  and  _435
REMARK  175  A    between atoms: _438  and  _440
REMARK  176  A    between atoms: _440  and  _441
REMARK  177  A    between atoms: _440  and  _443
REMARK  178  A    between atoms: _443  and  _444
REMARK  179  A    between atoms: _446  and  _448
REMARK  180  A    between atoms: _448  and  _449
REMARK  181  A    between atoms: _451  and  _453
REMARK  182  A    between atoms: _453  and  _454
REMARK  183  A    between atoms: _453  and  _456
REMARK  184  A    between atoms: _456  and  _457
REMARK  185  A    between atoms: _459  and  _461
REMARK  186  A    between atoms: _461  and  _462
REMARK  187  A    between atoms: _465  and  _467
REMARK  188  A    between atoms: _467  and  _468
REMARK  189  A    between atoms: _467  and  _470
REMARK  190  A    between atoms: _470  and  _471
REMARK  191  A    between atoms: _474  and  _476
REMARK  192  A    between atoms: _476  and  _477
REMARK  193  A    between atoms: _476  and  _479
REMARK  194  A    between atoms: _482  and  _484
REMARK  195  A    between atoms: _484  and  _485
REMARK  196  A    between atoms: _488  and  _490
REMARK  197  A    between atoms: _490  and  _491
REMARK  198  A    between atoms: _490  and  _493
REMARK  199  A    between atoms: _497  and  _498
REMARK  200  A    between atoms: _503  and  _505
REMARK  201  A    between atoms: _505  and  _506
REMARK  202  A    between atoms: _505  and  _508
REMARK  203  A    between atoms: _508  and  _509
REMARK  204  A    between atoms: _509  and  _510
REMARK  205  A    between atoms: _515  and  _517
REMARK  206  A    between atoms: _517  and  _518
REMARK  207  A    between atoms: _517  and  _520
REMARK  208  A    between atoms: _520  and  _521
REMARK  209  A    between atoms: _524  and  _526
REMARK  210  A    between atoms: _526  and  _527
REMARK  211  A    between atoms: _526  and  _529
REMARK  212  A    between atoms: _529  and  _530
REMARK  213  A    between atoms: _533  and  _535
REMARK  214  A    between atoms: _535  and  _536
REMARK  215  A    between atoms: _535  and  _538
REMARK  216  A    between atoms: _538  and  _539
REMARK                            x       y       z     vdW  Elec       q    Type
REMARK                         _______ _______ _______ _____ _____    ______ ____
ROOT
ATOM      1  CA  PHE A   3      46.457  32.791  16.860  0.00  0.00    +0.153 C 
ENDROOT
BRANCH   1   4
ATOM      2  C   PRO A   2      44.061  33.161  16.888  0.00  0.00    +0.241 C 
ATOM      3  O   PRO A   2      43.976  32.824  18.071  0.00  0.00    -0.273 OA
ATOM      4  N   PHE A   3      45.204  33.144  16.212  0.00  0.00    -0.297 N 
ATOM      5  H   PHE A   3      45.203  33.388  15.201  0.00  0.00    +0.150 HD
BRANCH   2  11
ATOM      6  C   VAL A   1      41.192  31.832  16.335  0.00  0.00    +0.241 C 
ATOM      7  N   PRO A   2      41.596  33.058  16.689  0.00  0.00    -0.272 N 
ATOM      8  CD  PRO A   2      40.867  34.092  17.447  0.00  0.00    +0.094 C 
ATOM      9  CG  PRO A   2      41.876  35.232  17.503  0.00  0.00    +0.024 C 
ATOM     10  CB  PRO A   2      42.601  35.105  16.202  0.00  0.00    +0.031 C 
ATOM     11  CA  PRO A   2      42.824  33.602  16.110  0.00  0.00    +0.152 C 
ATOM     12  O   VAL A   1      41.820  31.152  15.528  0.00  0.00    -0.273 OA
BRANCH   6  13
ATOM     13  CA  VAL A   1      39.907  31.309  16.972  0.00  0.00    +0.145 C 
BRANCH  13  14
ATOM     14  CB  VAL A   1      40.172  29.901  17.549  0.00  0.00    +0.025 C 
ATOM     15  CG2 VAL A   1      41.273  29.954  18.590  0.00  0.00    +0.002 C 
ATOM     16  CG1 VAL A   1      38.886  29.341  18.147  0.00  0.00    +0.002 C 
ENDBRANCH  13  14
BRANCH  13  17
ATOM     17  N   VAL A   1      38.787  31.257  16.043  0.00  0.00    -0.238 NA
ATOM     18  H   VAL A   1      38.848  30.632  15.214  0.00  0.00    +0.142 HD
ENDBRANCH  13  17
ENDBRANCH   6  13
ENDBRANCH   2  11
ENDBRANCH   1   4
BRANCH   1  19
ATOM     19  C   PHE A   3      47.421  33.962  16.786  0.00  0.00    +0.241 C 
ATOM     20  N   VAL A   4      48.170  34.164  17.866  0.00  0.00    -0.297 N 
ATOM     21  H   VAL A   4      48.020  33.558  18.698  0.00  0.00    +0.150 HD
ATOM     22  O   PHE A   3      47.476  34.665  15.779  0.00  0.00    -0.273 OA
BRANCH  20  23
ATOM     23  CA  VAL A   4      49.193  35.200  17.931  0.00  0.00    +0.149 C 
BRANCH  23  24
ATOM     24  C   VAL A   4      50.288  34.718  18.870  0.00  0.00    +0.241 C 
ATOM     25  O   VAL A   4      50.061  33.856  19.729  0.00  0.00    -0.273 OA
ATOM     26  N   THR A   5      51.483  35.260  18.680  0.00  0.00    -0.296 N 
ATOM     27  H   THR A   5      51.608  35.947  17.910  0.00  0.00    +0.150 HD
BRANCH  26  28
ATOM     28  CA  THR A   5      52.623  34.923  19.515  0.00  0.00    +0.164 C 
BRANCH  28  29
ATOM     29  C   THR A   5      52.643  35.903  20.684  0.00  0.00    +0.229 C 
ATOM     30  O   THR A   5      52.578  37.119  20.489  0.00  0.00    -0.286 OA
ENDBRANCH  28  29
BRANCH  28  31
ATOM     31  CB  THR A   5      53.944  35.051  18.729  0.00  0.00    +0.136 C 
ATOM     32  CG2 THR A   5      55.139  34.861  19.651  0.00  0.00    +0.034 C 
BRANCH  31  33
ATOM     33  OG1 THR A   5      53.983  34.063  17.692  0.00  0.00    -0.382 OA
ATOM     34  HG1 THR A   5      53.925  33.161  18.095  0.00  0.00    +0.210 HD
ENDBRANCH  31  33
ENDBRANCH  28  31
ENDBRANCH  26  28
ENDBRANCH  23  24
BRANCH  23  35
ATOM     35  CB  VAL A   4      48.662  36.560  18.463  0.00  0.00    +0.027 C 
ATOM     36  CG2 VAL A   4      47.921  36.359  19.769  0.00  0.00    +0.002 C 
ATOM     37  CG1 VAL A   4      47.772  37.224  17.422  0.00  0.00    +0.002 C 
ENDBRANCH  23  35
ENDBRANCH  20  23
ENDBRANCH   1  19
BRANCH   1  38
ATOM     38  CB  PHE A   3      47.124  31.575  16.200  0.00  0.00    +0.055 C 
BRANCH  38  39
ATOM     39  CG  PHE A   3      48.590  31.429  16.550  0.00  0.00    -0.020 A 
ATOM     40  CD2 PHE A   3      48.993  30.586  17.583  0.00  0.00    -0.004 A 
ATOM     41  CE2 PHE A   3      50.334  30.507  17.966  0.00  0.00    -0.000 A 
ATOM     42  CZ  PHE A   3      51.292  31.283  17.308  0.00  0.00    -0.000 A 
ATOM     43  CE1 PHE A   3      50.902  32.126  16.270  0.00  0.00    -0.000 A 
ATOM     44  CD1 PHE A   3      49.559  32.194  15.897  0.00  0.00    -0.004 A 
ENDBRANCH  38  39
ENDBRANCH   1  38
TORSDOF 15
REMARK  Name = ../refined-set-2016/2cli/2cli_pocket.pdb
REMARK  216 active torsions:
REMARK  status: ('A' for Active; 'I' for Inactive)
REMARK    1  A    between atoms: _1  and  _3
REMARK    2  A    between atoms: _3  and  _4
REMARK    3  A    between atoms: _3  and  _6
REMARK    4  A    between atoms: _10  and  _11
REMARK    5  A    between atoms: _16  and  _18
REMARK    6  A    between atoms: _18  and  _19
REMARK    7  A    between atoms: _18  and  _21
REMARK    8  A    between atoms: _21  and  _22
REMARK    9  A    between atoms: _28  and  _30
REMARK   10  A    between atoms: _30  and  _31
REMARK   11  A    between atoms: _30  and  _33
REMARK   12  A    between atoms: _36  and  _38
REMARK   13  A    between atoms: _38  and  _39
REMARK   14  A    between atoms: _38  and  _41
REMARK   15  A    between atoms: _41  and  _42
REMARK   16  A    between atoms: _45  and  _47
REMARK   17  A    between atoms: _47  and  _48
REMARK   18  A    between atoms: _47  and  _50
REMARK   19  A    between atoms: _50  and  _51
REMARK   20  A    between atoms: _54  and  _56
REMARK   21  A    between atoms: _56  and  _57
REMARK   22  A    between atoms: _56  and  _59
REMARK   23  A    between atoms: _59  and  _60
REMARK   24  A    between atoms: _60  and  _61
REMARK   25  A    between atoms: _64  and  _66
REMARK   26  A    between atoms: _66  and  _67
REMARK   27  A    between atoms: _66  and  _69
REMARK   28  A    between atoms: _69  and  _70
REMARK   29  A    between atoms: _73  and  _75
REMARK   30  A    between atoms: _75  and  _76
REMARK   31  A    between atoms: _78  and  _80
REMARK   32  A    between atoms: _80  and  _81
REMARK   33  A    between atoms: _80  and  _83
REMARK   34  A    between atoms: _83  and  _84
REMARK   35  A    between atoms: _87  and  _89
REMARK   36  A    between atoms: _89  and  _90
REMARK   37  A    between atoms: _93  and  _95
REMARK   38  A    between atoms: _95  and  _96
REMARK   39  A    between atoms: _95  and  _98
REMARK   40  A    between atoms: _98  and  _99
REMARK   41  A    between atoms: _102  and  _104
REMARK   42  A    between atoms: _104  and  _105
REMARK   43  A    between atoms: _107  and  _109
REMARK   44  A    between atoms: _109  and  _110
REMARK   45  A    between atoms: _109  and  _112
REMARK   46  A    between atoms: _112  and  _113
REMARK   47  A    between atoms: _116  and  _118
REMARK   48  A    between atoms: _118  and  _119
REMARK   49  A    between atoms: _118  and  _121
REMARK   50  A    between atoms: _121  and  _122
REMARK   51  A    between atoms: _125  and  _127
REMARK   52  A    between atoms: _127  and  _128
REMARK   53  A    between atoms: _130  and  _132
REMARK   54  A    between atoms: _132  and  _133
REMARK   55  A    between atoms: _132  and  _135
REMARK   56  A    between atoms: _135  and  _136
REMARK   57  A    between atoms: _139  and  _141
REMARK   58  A    between atoms: _141  and  _142
REMARK   59  A    between atoms: _141  and  _144
REMARK   60  A    between atoms: _144  and  _145
REMARK   61  A    between atoms: _148  and  _150
REMARK   62  A    between atoms: _150  and  _151
REMARK   63  A    between atoms: _150  and  _153
REMARK   64  A    between atoms: _153  and  _154
REMARK   65  A    between atoms: _154  and  _155
REMARK   66  A    between atoms: _157  and  _159
REMARK   67  A    between atoms: _159  and  _160
REMARK   68  A    between atoms: _159  and  _162
REMARK   69  A    between atoms: _162  and  _163
REMARK   70  A    between atoms: _168  and  _169
REMARK   71  A    between atoms: _171  and  _173
REMARK   72  A    between atoms: _173  and  _174
REMARK   73  A    between atoms: _173  and  _176
REMARK   74  A    between atoms: _176  and  _177
REMARK   75  A    between atoms: _180  and  _182
REMARK   76  A    between atoms: _182  and  _183
REMARK   77  A    between atoms: _182  and  _185
REMARK   78  A    between atoms: _188  and  _190
REMARK   79  A    between atoms: _190  and  _191
REMARK   80  A    between atoms: _194  and  _196
REMARK   81  A    between atoms: _196  and  _197
REMARK   82  A    between atoms: _196  and  _199
REMARK   83  A    between atoms: _199  and  _200
REMARK   84  A    between atoms: _203  and  _205
REMARK   85  A    between atoms: _205  and  _206
REMARK   86  A    between atoms: _205  and  _208
REMARK   87  A    between atoms: _212  and  _213
REMARK   88  A    between atoms: _218  and  _220
REMARK   89  A    between atoms: _220  and  _221
REMARK   90  A    between atoms: _220  and  _223
REMARK   91  A    between atoms: _223  and  _224
REMARK   92  A    between atoms: _227  and  _229
REMARK   93  A    between atoms: _229  and  _230
REMARK   94  A    between atoms: _229  and  _232
REMARK   95  A    between atoms: _232  and  _233
REMARK   96  A    between atoms: _239  and  _241
REMARK   97  A    between atoms: _241  and  _242
REMARK   98  A    between atoms: _241  and  _244
REMARK   99  A    between atoms: _244  and  _245
REMARK  100  A    between atoms: _248  and  _250
REMARK  101  A    between atoms: _250  and  _251
REMARK  102  A    between atoms: _250  and  _253
REMARK  103  A    between atoms: _256  and  _257
REMARK  104  A    between atoms: _262  and  _264
REMARK  105  A    between atoms: _264  and  _265
REMARK  106  A    between atoms: _264  and  _267
REMARK  107  A    between atoms: _267  and  _268
REMARK  108  A    between atoms: _273  and  _274
REMARK  109  A    between atoms: _276  and  _278
REMARK  110  A    between atoms: _278  and  _279
REMARK  111  A    between atoms: _278  and  _281
REMARK  112  A    between atoms: _281  and  _282
REMARK  113  A    between atoms: _287  and  _288
REMARK  114  A    between atoms: _290  and  _292
REMARK  115  A    between atoms: _292  and  _293
REMARK  116  A    between atoms: _292  and  _295
REMARK  117  A    between atoms: _295  and  _296
REMARK  118  A    between atoms: _299  and  _301
REMARK  119  A    between atoms: _301  and  _302
REMARK  120  A    between atoms: _301  and  _304
REMARK  121  A    between atoms: _304  and  _305
REMARK  122  A    between atoms: _307  and  _309
REMARK  123  A    between atoms: _309  and  _310
REMARK  124  A    between atoms: _309  and  _312
REMARK  125  A    between atoms: _312  and  _313
REMARK  126  A    between atoms: _313  and  _314
REMARK  127  A    between atoms: _314  and  _315
REMARK  128  A    between atoms: _324  and  _326
REMARK  129  A    between atoms: _326  and  _327
REMARK  130  A    between atoms: _329  and  _331
REMARK  131  A    between atoms: _331  and  _332
REMARK  132  A    between atoms: _331  and  _334
REMARK  133  A    between atoms: _337  and  _339
REMARK  134  A    between atoms: _339  and  _340
REMARK  135  A    between atoms: _339  and  _342
REMARK  136  A    between atoms: _342  and  _343
REMARK  137  A    between atoms: _346  and  _348
REMARK  138  A    between atoms: _348  and  _349
REMARK  139  A    between atoms: _351  and  _353
REMARK  140  A    between atoms: _353  and  _354
REMARK  141  A    between atoms: _353  and  _356
REMARK  142  A    between atoms: _356  and  _357
REMARK  143  A    between atoms: _360  and  _362
REMARK  144  A    between atoms: _362  and  _363
REMARK  145  A    between atoms: _362  and  _365
REMARK  146  A    between atoms: _365  and  _366
REMARK  147  A    between atoms: _366  and  _367
REMARK  148  A    between atoms: _372  and  _374
REMARK  149  A    between atoms: _374  and  _375
REMARK  150  A    between atoms: _377  and  _379
REMARK  151  A    between atoms: _379  and  _380
REMARK  152  A    between atoms: _379  and  _382
REMARK  153  A    between atoms: _382  and  _383
REMARK  154  A    between atoms: _389  and  _391
REMARK  155  A    between atoms: _391  and  _392
REMARK  156  A    between atoms: _394  and  _396
REMARK  157  A    between atoms: _396  and  _397
REMARK  158  A    between atoms: _396  and  _399
REMARK  159  A    between atoms: _399  and  _400
REMARK  160  A    between atoms: _403  and  _405
REMARK  161  A    between atoms: _405  and  _406
REMARK  162  A    between atoms: _405  and  _408
REMARK  163  A    between atoms: _408  and  _409
REMARK  164  A    between atoms: _411  and  _413
REMARK  165  A    between atoms: _413  and  _414
REMARK  166  A    between atoms: _413  and  _416
REMARK  167  A    between atoms: _416  and  _417
REMARK  168  A    between atoms: _417  and  _418
REMARK  169  A    between atoms: _423  and  _425
REMARK  170  A    between atoms: _425  and  _426
REMARK  171  A    between atoms: _429  and  _431
REMARK  172  A    between atoms: _431  and  _432
REMARK  173  A    between atoms: _431  and  _434
REMARK  174  A    between atoms: _434  and  _435
REMARK  175  A    between atoms: _438  and  _440
REMARK  176  A    between atoms: _440  and  _441
REMARK  177  A    between atoms: _440  and  _443
REMARK  178  A    between atoms: _443  and  _444
REMARK  179  A    between atoms: _446  and  _448
REMARK  180  A    between atoms: _448  and  _449
REMARK  181  A    between atoms: _451  and  _453
REMARK  182  A    between atoms: _453  and  _454
REMARK  183  A    between atoms: _453  and  _456
REMARK  184  A    between atoms: _456  and  _457
REMARK  185  A    between atoms: _459  and  _461
REMARK  186  A    between atoms: _461  and  _462
REMARK  187  A    between atoms: _465  and  _467
REMARK  188  A    between atoms: _467  and  _468
REMARK  189  A    between atoms: _467  and  _470
REMARK  190  A    between atoms: _470  and  _471
REMARK  191  A    between atoms: _474  and  _476
REMARK  192  A    between atoms: _476  and  _477
REMARK  193  A    between atoms: _476  and  _479
REMARK  194  A    between atoms: _482  and  _484
REMARK  195  A    between atoms: _484  and  _485
REMARK  196  A    between atoms: _488  and  _490
REMARK  197  A    between atoms: _490  and  _491
REMARK  198  A    between atoms: _490  and  _493
REMARK  199  A    between atoms: _497  and  _498
REMARK  200  A    between atoms: _503  and  _505
REMARK  201  A    between atoms: _505  and  _506
REMARK  202  A    between atoms: _505  and  _508
REMARK  203  A    between atoms: _508  and  _509
REMARK  204  A    between atoms: _509  and  _510
REMARK  205  A    between atoms: _515  and  _517
REMARK  206  A    between atoms: _517  and  _518
REMARK  207  A    between atoms: _517  and  _520
REMARK  208  A    between atoms: _520  and  _521
REMARK  209  A    between atoms: _524  and  _526
REMARK  210  A    between atoms: _526  and  _527
REMARK  211  A    between atoms: _526  and  _529
REMARK  212  A    between atoms: _529  and  _530
REMARK  213  A    between atoms: _533  and  _535
REMARK  214  A    between atoms: _535  and  _536
REMARK  215  A    between atoms: _535  and  _538
REMARK  216  A    between atoms: _538  and  _539
REMARK                            x       y       z     vdW  Elec       q    Type
REMARK                         _______ _______ _______ _____ _____    ______ ____
ROOT
ATOM      1  CA  GLU A   2      45.477  30.176  20.563  0.00  0.00    +0.149 C 
ENDROOT
BRANCH   1   4
ATOM      2  C   LEU A   1      43.477  31.058  21.638  0.00  0.00    +0.238 C 
ATOM      3  O   LEU A   1      43.388  30.108  22.414  0.00  0.00    -0.274 OA
ATOM      4  N   GLU A   2      44.412  31.154  20.702  0.00  0.00    -0.297 N 
ATOM      5  H   GLU A   2      44.381  31.959  20.044  0.00  0.00    +0.150 HD
BRANCH   2   6
ATOM      6  CA  LEU A   1      42.492  32.209  21.692  0.00  0.00    +0.145 C 
BRANCH   6   7
ATOM      7  N   LEU A   1      41.165  31.779  22.093  0.00  0.00    -0.238 NA
ATOM      8  H   LEU A   1      41.047  31.224  22.965  0.00  0.00    +0.142 HD
ENDBRANCH   6   7
BRANCH   6   9
ATOM      9  CB  LEU A   1      43.028  33.251  22.676  0.00  0.00    +0.026 C 
BRANCH   9  10
ATOM     10  CG  LEU A   1      42.274  34.570  22.842  0.00  0.00    +0.002 C 
ATOM     11  CD2 LEU A   1      42.907  35.369  23.973  0.00  0.00    +0.000 C 
ATOM     12  CD1 LEU A   1      42.315  35.357  21.543  0.00  0.00    +0.000 C 
ENDBRANCH   9  10
ENDBRANCH   6   9
ENDBRANCH   2   6
ENDBRANCH   1   4
BRANCH   1  13
ATOM     13  C   GLU A   2      46.701  31.081  20.698  0.00  0.00    +0.241 C 
ATOM     14  N   LEU A   3      47.511  30.847  21.728  0.00  0.00    -0.297 N 
ATOM     15  H   LEU A   3      47.315  30.043  22.358  0.00  0.00    +0.150 HD
ATOM     16  O   GLU A   2      46.894  31.994  19.893  0.00  0.00    -0.273 OA
BRANCH  14  17
ATOM     17  CA  LEU A   3      48.669  31.697  21.990  0.00  0.00    +0.149 C 
BRANCH  17  18
ATOM     18  C   LEU A   3      49.993  30.950  22.046  0.00  0.00    +0.241 C 
ATOM     19  O   LEU A   3      50.144  29.991  22.796  0.00  0.00    -0.273 OA
ATOM     20  N   GLY A   4      50.960  31.414  21.261  0.00  0.00    -0.296 N 
ATOM     21  H   GLY A   4      50.787  32.246  20.662  0.00  0.00    +0.150 HD
BRANCH  20  22
ATOM     22  CA  GLY A   4      52.254  30.763  21.238  0.00  0.00    +0.163 C 
BRANCH  22  23
ATOM     23  C   GLY A   4      53.276  31.380  22.173  0.00  0.00    +0.229 C 
ATOM     24  O   GLY A   4      53.304  32.594  22.374  0.00  0.00    -0.286 OA
ENDBRANCH  22  23
ENDBRANCH  20  22
ENDBRANCH  17  18
BRANCH  17  25
ATOM     25  CB  LEU A   3      48.455  32.448  23.308  0.00  0.00    +0.029 C 
BRANCH  25  26
ATOM     26  CG  LEU A   3      47.134  33.219  23.411  0.00  0.00    +0.002 C 
ATOM     27  CD2 LEU A   3      46.921  33.685  24.847  0.00  0.00    +0.000 C 
ATOM     28  CD1 LEU A   3      47.147  34.401  22.446  0.00  0.00    +0.000 C 
ENDBRANCH  25  26
ENDBRANCH  17  25
ENDBRANCH  14  17
ENDBRANCH   1  13
BRANCH   1  29
ATOM     29  CB  GLU A   2      45.420  29.515  19.189  0.00  0.00    +0.041 C 
BRANCH  29  30
ATOM     30  CG  GLU A   2      46.163  28.198  19.112  0.00  0.00    +0.116 C 
BRANCH  30  31
ATOM     31  CD  GLU A   2      45.744  27.223  20.200  0.00  0.00    +0.365 C 
ATOM     32  OE2 GLU A   2      46.635  26.585  20.797  0.00  0.00    -0.246 OA
ATOM     33  OE1 GLU A   2      44.528  27.083  20.456  0.00  0.00    -0.246 OA
ENDBRANCH  30  31
ENDBRANCH  29  30
ENDBRANCH   1  29
TORSDOF 15
REMARK  Name = ../refined-set-2016/2cli/2cli_pocket.pdb
REMARK  216 active torsions:
REMARK  status: ('A' for Active; 'I' for Inactive)
REMARK    1  A    between atoms: _1  and  _3
REMARK    2  A    between atoms: _3  and  _4
REMARK    3  A    between atoms: _3  and  _6
REMARK    4  A    between atoms: _10  and  _11
REMARK    5  A    between atoms: _16  and  _18
REMARK    6  A    between atoms: _18  and  _19
REMARK    7  A    between atoms: _18  and  _21
REMARK    8  A    between atoms: _21  and  _22
REMARK    9  A    between atoms: _28  and  _30
REMARK   10  A    between atoms: _30  and  _31
REMARK   11  A    between atoms: _30  and  _33
REMARK   12  A    between atoms: _36  and  _38
REMARK   13  A    between atoms: _38  and  _39
REMARK   14  A    between atoms: _38  and  _41
REMARK   15  A    between atoms: _41  and  _42
REMARK   16  A    between atoms: _45  and  _47
REMARK   17  A    between atoms: _47  and  _48
REMARK   18  A    between atoms: _47  and  _50
REMARK   19  A    between atoms: _50  and  _51
REMARK   20  A    between atoms: _54  and  _56
REMARK   21  A    between atoms: _56  and  _57
REMARK   22  A    between atoms: _56  and  _59
REMARK   23  A    between atoms: _59  and  _60
REMARK   24  A    between atoms: _60  and  _61
REMARK   25  A    between atoms: _64  and  _66
REMARK   26  A    between atoms: _66  and  _67
REMARK   27  A    between atoms: _66  and  _69
REMARK   28  A    between atoms: _69  and  _70
REMARK   29  A    between atoms: _73  and  _75
REMARK   30  A    between atoms: _75  and  _76
REMARK   31  A    between atoms: _78  and  _80
REMARK   32  A    between atoms: _80  and  _81
REMARK   33  A    between atoms: _80  and  _83
REMARK   34  A    between atoms: _83  and  _84
REMARK   35  A    between atoms: _87  and  _89
REMARK   36  A    between atoms: _89  and  _90
REMARK   37  A    between atoms: _93  and  _95
REMARK   38  A    between atoms: _95  and  _96
REMARK   39  A    between atoms: _95  and  _98
REMARK   40  A    between atoms: _98  and  _99
REMARK   41  A    between atoms: _102  and  _104
REMARK   42  A    between atoms: _104  and  _105
REMARK   43  A    between atoms: _107  and  _109
REMARK   44  A    between atoms: _109  and  _110
REMARK   45  A    between atoms: _109  and  _112
REMARK   46  A    between atoms: _112  and  _113
REMARK   47  A    between atoms: _116  and  _118
REMARK   48  A    between atoms: _118  and  _119
REMARK   49  A    between atoms: _118  and  _121
REMARK   50  A    between atoms: _121  and  _122
REMARK   51  A    between atoms: _125  and  _127
REMARK   52  A    between atoms: _127  and  _128
REMARK   53  A    between atoms: _130  and  _132
REMARK   54  A    between atoms: _132  and  _133
REMARK   55  A    between atoms: _132  and  _135
REMARK   56  A    between atoms: _135  and  _136
REMARK   57  A    between atoms: _139  and  _141
REMARK   58  A    between atoms: _141  and  _142
REMARK   59  A    between atoms: _141  and  _144
REMARK   60  A    between atoms: _144  and  _145
REMARK   61  A    between atoms: _148  and  _150
REMARK   62  A    between atoms: _150  and  _151
REMARK   63  A    between atoms: _150  and  _153
REMARK   64  A    between atoms: _153  and  _154
REMARK   65  A    between atoms: _154  and  _155
REMARK   66  A    between atoms: _157  and  _159
REMARK   67  A    between atoms: _159  and  _160
REMARK   68  A    between atoms: _159  and  _162
REMARK   69  A    between atoms: _162  and  _163
REMARK   70  A    between atoms: _168  and  _169
REMARK   71  A    between atoms: _171  and  _173
REMARK   72  A    between atoms: _173  and  _174
REMARK   73  A    between atoms: _173  and  _176
REMARK   74  A    between atoms: _176  and  _177
REMARK   75  A    between atoms: _180  and  _182
REMARK   76  A    between atoms: _182  and  _183
REMARK   77  A    between atoms: _182  and  _185
REMARK   78  A    between atoms: _188  and  _190
REMARK   79  A    between atoms: _190  and  _191
REMARK   80  A    between atoms: _194  and  _196
REMARK   81  A    between atoms: _196  and  _197
REMARK   82  A    between atoms: _196  and  _199
REMARK   83  A    between atoms: _199  and  _200
REMARK   84  A    between atoms: _203  and  _205
REMARK   85  A    between atoms: _205  and  _206
REMARK   86  A    between atoms: _205  and  _208
REMARK   87  A    between atoms: _212  and  _213
REMARK   88  A    between atoms: _218  and  _220
REMARK   89  A    between atoms: _220  and  _221
REMARK   90  A    between atoms: _220  and  _223
REMARK   91  A    between atoms: _223  and  _224
REMARK   92  A    between atoms: _227  and  _229
REMARK   93  A    between atoms: _229  and  _230
REMARK   94  A    between atoms: _229  and  _232
REMARK   95  A    between atoms: _232  and  _233
REMARK   96  A    between atoms: _239  and  _241
REMARK   97  A    between atoms: _241  and  _242
REMARK   98  A    between atoms: _241  and  _244
REMARK   99  A    between atoms: _244  and  _245
REMARK  100  A    between atoms: _248  and  _250
REMARK  101  A    between atoms: _250  and  _251
REMARK  102  A    between atoms: _250  and  _253
REMARK  103  A    between atoms: _256  and  _257
REMARK  104  A    between atoms: _262  and  _264
REMARK  105  A    between atoms: _264  and  _265
REMARK  106  A    between atoms: _264  and  _267
REMARK  107  A    between atoms: _267  and  _268
REMARK  108  A    between atoms: _273  and  _274
REMARK  109  A    between atoms: _276  and  _278
REMARK  110  A    between atoms: _278  and  _279
REMARK  111  A    between atoms: _278  and  _281
REMARK  112  A    between atoms: _281  and  _282
REMARK  113  A    between atoms: _287  and  _288
REMARK  114  A    between atoms: _290  and  _292
REMARK  115  A    between atoms: _292  and  _293
REMARK  116  A    between atoms: _292  and  _295
REMARK  117  A    between atoms: _295  and  _296
REMARK  118  A    between atoms: _299  and  _301
REMARK  119  A    between atoms: _301  and  _302
REMARK  120  A    between atoms: _301  and  _304
REMARK  121  A    between atoms: _304  and  _305
REMARK  122  A    between atoms: _307  and  _309
REMARK  123  A    between atoms: _309  and  _310
REMARK  124  A    between atoms: _309  and  _312
REMARK  125  A    between atoms: _312  and  _313
REMARK  126  A    between atoms: _313  and  _314
REMARK  127  A    between atoms: _314  and  _315
REMARK  128  A    between atoms: _324  and  _326
REMARK  129  A    between atoms: _326  and  _327
REMARK  130  A    between atoms: _329  and  _331
REMARK  131  A    between atoms: _331  and  _332
REMARK  132  A    between atoms: _331  and  _334
REMARK  133  A    between atoms: _337  and  _339
REMARK  134  A    between atoms: _339  and  _340
REMARK  135  A    between atoms: _339  and  _342
REMARK  136  A    between atoms: _342  and  _343
REMARK  137  A    between atoms: _346  and  _348
REMARK  138  A    between atoms: _348  and  _349
REMARK  139  A    between atoms: _351  and  _353
REMARK  140  A    between atoms: _353  and  _354
REMARK  141  A    between atoms: _353  and  _356
REMARK  142  A    between atoms: _356  and  _357
REMARK  143  A    between atoms: _360  and  _362
REMARK  144  A    between atoms: _362  and  _363
REMARK  145  A    between atoms: _362  and  _365
REMARK  146  A    between atoms: _365  and  _366
REMARK  147  A    between atoms: _366  and  _367
REMARK  148  A    between atoms: _372  and  _374
REMARK  149  A    between atoms: _374  and  _375
REMARK  150  A    between atoms: _377  and  _379
REMARK  151  A    between atoms: _379  and  _380
REMARK  152  A    between atoms: _379  and  _382
REMARK  153  A    between atoms: _382  and  _383
REMARK  154  A    between atoms: _389  and  _391
REMARK  155  A    between atoms: _391  and  _392
REMARK  156  A    between atoms: _394  and  _396
REMARK  157  A    between atoms: _396  and  _397
REMARK  158  A    between atoms: _396  and  _399
REMARK  159  A    between atoms: _399  and  _400
REMARK  160  A    between atoms: _403  and  _405
REMARK  161  A    between atoms: _405  and  _406
REMARK  162  A    between atoms: _405  and  _408
REMARK  163  A    between atoms: _408  and  _409
REMARK  164  A    between atoms: _411  and  _413
REMARK  165  A    between atoms: _413  and  _414
REMARK  166  A    between atoms: _413  and  _416
REMARK  167  A    between atoms: _416  and  _417
REMARK  168  A    between atoms: _417  and  _418
REMARK  169  A    between atoms: _423  and  _425
REMARK  170  A    between atoms: _425  and  _426
REMARK  171  A    between atoms: _429  and  _431
REMARK  172  A    between atoms: _431  and  _432
REMARK  173  A    between atoms: _431  and  _434
REMARK  174  A    between atoms: _434  and  _435
REMARK  175  A    between atoms: _438  and  _440
REMARK  176  A    between atoms: _440  and  _441
REMARK  177  A    between atoms: _440  and  _443
REMARK  178  A    between atoms: _443  and  _444
REMARK  179  A    between atoms: _446  and  _448
REMARK  180  A    between atoms: _448  and  _449
REMARK  181  A    between atoms: _451  and  _453
REMARK  182  A    between atoms: _453  and  _454
REMARK  183  A    between atoms: _453  and  _456
REMARK  184  A    between atoms: _456  and  _457
REMARK  185  A    between atoms: _459  and  _461
REMARK  186  A    between atoms: _461  and  _462
REMARK  187  A    between atoms: _465  and  _467
REMARK  188  A    between atoms: _467  and  _468
REMARK  189  A    between atoms: _467  and  _470
REMARK  190  A    between atoms: _470  and  _471
REMARK  191  A    between atoms: _474  and  _476
REMARK  192  A    between atoms: _476  and  _477
REMARK  193  A    between atoms: _476  and  _479
REMARK  194  A    between atoms: _482  and  _484
REMARK  195  A    between atoms: _484  and  _485
REMARK  196  A    between atoms: _488  and  _490
REMARK  197  A    between atoms: _490  and  _491
REMARK  198  A    between atoms: _490  and  _493
REMARK  199  A    between atoms: _497  and  _498
REMARK  200  A    between atoms: _503  and  _505
REMARK  201  A    between atoms: _505  and  _506
REMARK  202  A    between atoms: _505  and  _508
REMARK  203  A    between atoms: _508  and  _509
REMARK  204  A    between atoms: _509  and  _510
REMARK  205  A    between atoms: _515  and  _517
REMARK  206  A    between atoms: _517  and  _518
REMARK  207  A    between atoms: _517  and  _520
REMARK  208  A    between atoms: _520  and  _521
REMARK  209  A    between atoms: _524  and  _526
REMARK  210  A    between atoms: _526  and  _527
REMARK  211  A    between atoms: _526  and  _529
REMARK  212  A    between atoms: _529  and  _530
REMARK  213  A    between atoms: _533  and  _535
REMARK  214  A    between atoms: _535  and  _536
REMARK  215  A    between atoms: _535  and  _538
REMARK  216  A    between atoms: _538  and  _539
REMARK                            x       y       z     vdW  Elec       q    Type
REMARK                         _______ _______ _______ _____ _____    ______ ____
ROOT
ATOM      1  C   ALA A   2      55.578  24.833  12.135  0.00  0.00    +0.241 C 
ATOM      2  N   ASP A   3      56.294  25.949  12.219  0.00  0.00    -0.297 N 
ATOM      3  H   ASP A   3      57.246  25.911  12.636  0.00  0.00    +0.150 HD
ATOM      4  O   ALA A   2      54.454  24.790  11.627  0.00  0.00    -0.273 OA
ENDROOT
BRANCH   1   5
ATOM      5  CA  ALA A   2      56.232  23.575  12.696  0.00  0.00    +0.149 C 
ATOM      6  CB  ALA A   2      55.367  22.984  13.805  0.00  0.00    +0.031 C 
BRANCH   5   8
ATOM      7  C   LEU A   1      58.652  23.392  12.653  0.00  0.00    +0.238 C 
ATOM      8  N   ALA A   2      57.559  23.899  13.211  0.00  0.00    -0.297 N 
ATOM      9  H   ALA A   2      57.650  24.537  14.028  0.00  0.00    +0.150 HD
ATOM     10  O   LEU A   1      58.611  22.620  11.695  0.00  0.00    -0.274 OA
BRANCH   7  11
ATOM     11  CA  LEU A   1      59.993  23.806  13.253  0.00  0.00    +0.145 C 
BRANCH  11  12
ATOM     12  N   LEU A   1      59.927  24.605  14.475  0.00  0.00    -0.238 NA
ATOM     13  H   LEU A   1      60.252  24.180  15.367  0.00  0.00    +0.142 HD
ENDBRANCH  11  12
BRANCH  11  14
ATOM     14  CB  LEU A   1      60.860  22.564  13.496  0.00  0.00    +0.026 C 
BRANCH  14  15
ATOM     15  CG  LEU A   1      60.496  21.661  14.677  0.00  0.00    +0.002 C 
ATOM     16  CD2 LEU A   1      61.657  20.726  14.972  0.00  0.00    +0.000 C 
ATOM     17  CD1 LEU A   1      59.244  20.858  14.357  0.00  0.00    +0.000 C 
ENDBRANCH  14  15
ENDBRANCH  11  14
ENDBRANCH   7  11
ENDBRANCH   5   8
ENDBRANCH   1   5
BRANCH   2  18
ATOM     18  CA  ASP A   3      55.777  27.226  11.740  0.00  0.00    +0.160 C 
BRANCH  18  19
ATOM     19  C   ASP A   3      56.462  27.765  10.493  0.00  0.00    +0.241 C 
ATOM     20  O   ASP A   3      57.659  27.558  10.279  0.00  0.00    -0.273 OA
ATOM     21  N   GLY A   4      55.681  28.466   9.676  0.00  0.00    -0.296 N 
ATOM     22  H   GLY A   4      54.677  28.594   9.914  0.00  0.00    +0.150 HD
BRANCH  21  23
ATOM     23  CA  GLY A   4      56.204  29.055   8.460  0.00  0.00    +0.163 C 
BRANCH  23  24
ATOM     24  C   GLY A   4      56.906  30.369   8.751  0.00  0.00    +0.229 C 
ATOM     25  O   GLY A   4      57.017  30.769   9.910  0.00  0.00    -0.286 OA
ENDBRANCH  23  24
ENDBRANCH  21  23
ENDBRANCH  18  19
BRANCH  18  26
ATOM     26  CB  ASP A   3      55.868  28.270  12.856  0.00  0.00    +0.143 C 
BRANCH  26  27
ATOM     27  CG  ASP A   3      54.834  28.051  13.941  0.00  0.00    +0.367 C 
ATOM     28  OD2 ASP A   3      55.221  27.685  15.071  0.00  0.00    -0.246 OA
ATOM     29  OD1 ASP A   3      53.632  28.238  13.654  0.00  0.00    -0.246 OA
ENDBRANCH  26  27
ENDBRANCH  18  26
ENDBRANCH   2  18
TORSDOF 12
REMARK  Name = ../refined-set-2016/2cli/2cli_pocket.pdb
REMARK  216 active torsions:
REMARK  status: ('A' for Active; 'I' for Inactive)
REMARK    1  A    between atoms: _1  and  _3
REMARK    2  A    between atoms: _3  and  _4
REMARK    3  A    between atoms: _3  and  _6
REMARK    4  A    between atoms: _10  and  _11
REMARK    5  A    between atoms: _16  and  _18
REMARK    6  A    between atoms: _18  and  _19
REMARK    7  A    between atoms: _18  and  _21
REMARK    8  A    between atoms: _21  and  _22
REMARK    9  A    between atoms: _28  and  _30
REMARK   10  A    between atoms: _30  and  _31
REMARK   11  A    between atoms: _30  and  _33
REMARK   12  A    between atoms: _36  and  _38
REMARK   13  A    between atoms: _38  and  _39
REMARK   14  A    between atoms: _38  and  _41
REMARK   15  A    between atoms: _41  and  _42
REMARK   16  A    between atoms: _45  and  _47
REMARK   17  A    between atoms: _47  and  _48
REMARK   18  A    between atoms: _47  and  _50
REMARK   19  A    between atoms: _50  and  _51
REMARK   20  A    between atoms: _54  and  _56
REMARK   21  A    between atoms: _56  and  _57
REMARK   22  A    between atoms: _56  and  _59
REMARK   23  A    between atoms: _59  and  _60
REMARK   24  A    between atoms: _60  and  _61
REMARK   25  A    between atoms: _64  and  _66
REMARK   26  A    between atoms: _66  and  _67
REMARK   27  A    between atoms: _66  and  _69
REMARK   28  A    between atoms: _69  and  _70
REMARK   29  A    between atoms: _73  and  _75
REMARK   30  A    between atoms: _75  and  _76
REMARK   31  A    between atoms: _78  and  _80
REMARK   32  A    between atoms: _80  and  _81
REMARK   33  A    between atoms: _80  and  _83
REMARK   34  A    between atoms: _83  and  _84
REMARK   35  A    between atoms: _87  and  _89
REMARK   36  A    between atoms: _89  and  _90
REMARK   37  A    between atoms: _93  and  _95
REMARK   38  A    between atoms: _95  and  _96
REMARK   39  A    between atoms: _95  and  _98
REMARK   40  A    between atoms: _98  and  _99
REMARK   41  A    between atoms: _102  and  _104
REMARK   42  A    between atoms: _104  and  _105
REMARK   43  A    between atoms: _107  and  _109
REMARK   44  A    between atoms: _109  and  _110
REMARK   45  A    between atoms: _109  and  _112
REMARK   46  A    between atoms: _112  and  _113
REMARK   47  A    between atoms: _116  and  _118
REMARK   48  A    between atoms: _118  and  _119
REMARK   49  A    between atoms: _118  and  _121
REMARK   50  A    between atoms: _121  and  _122
REMARK   51  A    between atoms: _125  and  _127
REMARK   52  A    between atoms: _127  and  _128
REMARK   53  A    between atoms: _130  and  _132
REMARK   54  A    between atoms: _132  and  _133
REMARK   55  A    between atoms: _132  and  _135
REMARK   56  A    between atoms: _135  and  _136
REMARK   57  A    between atoms: _139  and  _141
REMARK   58  A    between atoms: _141  and  _142
REMARK   59  A    between atoms: _141  and  _144
REMARK   60  A    between atoms: _144  and  _145
REMARK   61  A    between atoms: _148  and  _150
REMARK   62  A    between atoms: _150  and  _151
REMARK   63  A    between atoms: _150  and  _153
REMARK   64  A    between atoms: _153  and  _154
REMARK   65  A    between atoms: _154  and  _155
REMARK   66  A    between atoms: _157  and  _159
REMARK   67  A    between atoms: _159  and  _160
REMARK   68  A    between atoms: _159  and  _162
REMARK   69  A    between atoms: _162  and  _163
REMARK   70  A    between atoms: _168  and  _169
REMARK   71  A    between atoms: _171  and  _173
REMARK   72  A    between atoms: _173  and  _174
REMARK   73  A    between atoms: _173  and  _176
REMARK   74  A    between atoms: _176  and  _177
REMARK   75  A    between atoms: _180  and  _182
REMARK   76  A    between atoms: _182  and  _183
REMARK   77  A    between atoms: _182  and  _185
REMARK   78  A    between atoms: _188  and  _190
REMARK   79  A    between atoms: _190  and  _191
REMARK   80  A    between atoms: _194  and  _196
REMARK   81  A    between atoms: _196  and  _197
REMARK   82  A    between atoms: _196  and  _199
REMARK   83  A    between atoms: _199  and  _200
REMARK   84  A    between atoms: _203  and  _205
REMARK   85  A    between atoms: _205  and  _206
REMARK   86  A    between atoms: _205  and  _208
REMARK   87  A    between atoms: _212  and  _213
REMARK   88  A    between atoms: _218  and  _220
REMARK   89  A    between atoms: _220  and  _221
REMARK   90  A    between atoms: _220  and  _223
REMARK   91  A    between atoms: _223  and  _224
REMARK   92  A    between atoms: _227  and  _229
REMARK   93  A    between atoms: _229  and  _230
REMARK   94  A    between atoms: _229  and  _232
REMARK   95  A    between atoms: _232  and  _233
REMARK   96  A    between atoms: _239  and  _241
REMARK   97  A    between atoms: _241  and  _242
REMARK   98  A    between atoms: _241  and  _244
REMARK   99  A    between atoms: _244  and  _245
REMARK  100  A    between atoms: _248  and  _250
REMARK  101  A    between atoms: _250  and  _251
REMARK  102  A    between atoms: _250  and  _253
REMARK  103  A    between atoms: _256  and  _257
REMARK  104  A    between atoms: _262  and  _264
REMARK  105  A    between atoms: _264  and  _265
REMARK  106  A    between atoms: _264  and  _267
REMARK  107  A    between atoms: _267  and  _268
REMARK  108  A    between atoms: _273  and  _274
REMARK  109  A    between atoms: _276  and  _278
REMARK  110  A    between atoms: _278  and  _279
REMARK  111  A    between atoms: _278  and  _281
REMARK  112  A    between atoms: _281  and  _282
REMARK  113  A    between atoms: _287  and  _288
REMARK  114  A    between atoms: _290  and  _292
REMARK  115  A    between atoms: _292  and  _293
REMARK  116  A    between atoms: _292  and  _295
REMARK  117  A    between atoms: _295  and  _296
REMARK  118  A    between atoms: _299  and  _301
REMARK  119  A    between atoms: _301  and  _302
REMARK  120  A    between atoms: _301  and  _304
REMARK  121  A    between atoms: _304  and  _305
REMARK  122  A    between atoms: _307  and  _309
REMARK  123  A    between atoms: _309  and  _310
REMARK  124  A    between atoms: _309  and  _312
REMARK  125  A    between atoms: _312  and  _313
REMARK  126  A    between atoms: _313  and  _314
REMARK  127  A    between atoms: _314  and  _315
REMARK  128  A    between atoms: _324  and  _326
REMARK  129  A    between atoms: _326  and  _327
REMARK  130  A    between atoms: _329  and  _331
REMARK  131  A    between atoms: _331  and  _332
REMARK  132  A    between atoms: _331  and  _334
REMARK  133  A    between atoms: _337  and  _339
REMARK  134  A    between atoms: _339  and  _340
REMARK  135  A    between atoms: _339  and  _342
REMARK  136  A    between atoms: _342  and  _343
REMARK  137  A    between atoms: _346  and  _348
REMARK  138  A    between atoms: _348  and  _349
REMARK  139  A    between atoms: _351  and  _353
REMARK  140  A    between atoms: _353  and  _354
REMARK  141  A    between atoms: _353  and  _356
REMARK  142  A    between atoms: _356  and  _357
REMARK  143  A    between atoms: _360  and  _362
REMARK  144  A    between atoms: _362  and  _363
REMARK  145  A    between atoms: _362  and  _365
REMARK  146  A    between atoms: _365  and  _366
REMARK  147  A    between atoms: _366  and  _367
REMARK  148  A    between atoms: _372  and  _374
REMARK  149  A    between atoms: _374  and  _375
REMARK  150  A    between atoms: _377  and  _379
REMARK  151  A    between atoms: _379  and  _380
REMARK  152  A    between atoms: _379  and  _382
REMARK  153  A    between atoms: _382  and  _383
REMARK  154  A    between atoms: _389  and  _391
REMARK  155  A    between atoms: _391  and  _392
REMARK  156  A    between atoms: _394  and  _396
REMARK  157  A    between atoms: _396  and  _397
REMARK  158  A    between atoms: _396  and  _399
REMARK  159  A    between atoms: _399  and  _400
REMARK  160  A    between atoms: _403  and  _405
REMARK  161  A    between atoms: _405  and  _406
REMARK  162  A    between atoms: _405  and  _408
REMARK  163  A    between atoms: _408  and  _409
REMARK  164  A    between atoms: _411  and  _413
REMARK  165  A    between atoms: _413  and  _414
REMARK  166  A    between atoms: _413  and  _416
REMARK  167  A    between atoms: _416  and  _417
REMARK  168  A    between atoms: _417  and  _418
REMARK  169  A    between atoms: _423  and  _425
REMARK  170  A    between atoms: _425  and  _426
REMARK  171  A    between atoms: _429  and  _431
REMARK  172  A    between atoms: _431  and  _432
REMARK  173  A    between atoms: _431  and  _434
REMARK  174  A    between atoms: _434  and  _435
REMARK  175  A    between atoms: _438  and  _440
REMARK  176  A    between atoms: _440  and  _441
REMARK  177  A    between atoms: _440  and  _443
REMARK  178  A    between atoms: _443  and  _444
REMARK  179  A    between atoms: _446  and  _448
REMARK  180  A    between atoms: _448  and  _449
REMARK  181  A    between atoms: _451  and  _453
REMARK  182  A    between atoms: _453  and  _454
REMARK  183  A    between atoms: _453  and  _456
REMARK  184  A    between atoms: _456  and  _457
REMARK  185  A    between atoms: _459  and  _461
REMARK  186  A    between atoms: _461  and  _462
REMARK  187  A    between atoms: _465  and  _467
REMARK  188  A    between atoms: _467  and  _468
REMARK  189  A    between atoms: _467  and  _470
REMARK  190  A    between atoms: _470  and  _471
REMARK  191  A    between atoms: _474  and  _476
REMARK  192  A    between atoms: _476  and  _477
REMARK  193  A    between atoms: _476  and  _479
REMARK  194  A    between atoms: _482  and  _484
REMARK  195  A    between atoms: _484  and  _485
REMARK  196  A    between atoms: _488  and  _490
REMARK  197  A    between atoms: _490  and  _491
REMARK  198  A    between atoms: _490  and  _493
REMARK  199  A    between atoms: _497  and  _498
REMARK  200  A    between atoms: _503  and  _505
REMARK  201  A    between atoms: _505  and  _506
REMARK  202  A    between atoms: _505  and  _508
REMARK  203  A    between atoms: _508  and  _509
REMARK  204  A    between atoms: _509  and  _510
REMARK  205  A    between atoms: _515  and  _517
REMARK  206  A    between atoms: _517  and  _518
REMARK  207  A    between atoms: _517  and  _520
REMARK  208  A    between atoms: _520  and  _521
REMARK  209  A    between atoms: _524  and  _526
REMARK  210  A    between atoms: _526  and  _527
REMARK  211  A    between atoms: _526  and  _529
REMARK  212  A    between atoms: _529  and  _530
REMARK  213  A    between atoms: _533  and  _535
REMARK  214  A    between atoms: _535  and  _536
REMARK  215  A    between atoms: _535  and  _538
REMARK  216  A    between atoms: _538  and  _539
REMARK                            x       y       z     vdW  Elec       q    Type
REMARK                         _______ _______ _______ _____ _____    ______ ____
ROOT
ATOM      1  C   THR A   1      55.453  34.376  10.716  0.00  0.00    +0.241 C 
ATOM      2  O   THR A   1      55.837  35.294  11.443  0.00  0.00    -0.274 OA
ATOM      3  N   ILE A   2      55.132  33.174  11.181  0.00  0.00    -0.298 N 
ATOM      4  H   ILE A   2      54.818  32.438  10.516  0.00  0.00    +0.150 HD
ENDROOT
BRANCH   1   5
ATOM      5  CA  THR A   1      55.319  34.578   9.209  0.00  0.00    +0.172 C 
BRANCH   5   6
ATOM      6  N   THR A   1      56.094  33.604   8.449  0.00  0.00    -0.236 NA
ATOM      7  H   THR A   1      55.634  33.075   7.681  0.00  0.00    +0.142 HD
ENDBRANCH   5   6
BRANCH   5   8
ATOM      8  CB  THR A   1      53.822  34.515   8.836  0.00  0.00    +0.135 C 
ATOM      9  CG2 THR A   1      53.033  35.554   9.625  0.00  0.00    +0.034 C 
BRANCH   8  10
ATOM     10  OG1 THR A   1      53.664  34.778   7.436  0.00  0.00    -0.383 OA
ATOM     11  HG1 THR A   1      52.703  34.737   7.200  0.00  0.00    +0.210 HD
ENDBRANCH   8  10
ENDBRANCH   5   8
ENDBRANCH   1   5
BRANCH   3  12
ATOM     12  CA  ILE A   2      55.210  32.865  12.603  0.00  0.00    +0.137 C 
BRANCH  12  13
ATOM     13  C   ILE A   2      56.660  32.845  13.081  0.00  0.00    +0.227 C 
ATOM     14  O   ILE A   2      56.952  33.198  14.225  0.00  0.00    -0.286 OA
ENDBRANCH  12  13
BRANCH  12  15
ATOM     15  CB  ILE A   2      54.556  31.501  12.914  0.00  0.00    +0.026 C 
ATOM     16  CG2 ILE A   2      54.526  31.267  14.420  0.00  0.00    +0.002 C 
BRANCH  15  17
ATOM     17  CG1 ILE A   2      53.132  31.467  12.352  0.00  0.00    +0.002 C 
ATOM     18  CD1 ILE A   2      52.208  32.512  12.941  0.00  0.00    +0.000 C 
ENDBRANCH  15  17
ENDBRANCH  12  15
ENDBRANCH   3  12
TORSDOF 8
REMARK  Name = ../refined-set-2016/2cli/2cli_pocket.pdb
REMARK  216 active torsions:
REMARK  status: ('A' for Active; 'I' for Inactive)
REMARK    1  A    between atoms: _1  and  _3
REMARK    2  A    between atoms: _3  and  _4
REMARK    3  A    between atoms: _3  and  _6
REMARK    4  A    between atoms: _10  and  _11
REMARK    5  A    between atoms: _16  and  _18
REMARK    6  A    between atoms: _18  and  _19
REMARK    7  A    between atoms: _18  and  _21
REMARK    8  A    between atoms: _21  and  _22
REMARK    9  A    between atoms: _28  and  _30
REMARK   10  A    between atoms: _30  and  _31
REMARK   11  A    between atoms: _30  and  _33
REMARK   12  A    between atoms: _36  and  _38
REMARK   13  A    between atoms: _38  and  _39
REMARK   14  A    between atoms: _38  and  _41
REMARK   15  A    between atoms: _41  and  _42
REMARK   16  A    between atoms: _45  and  _47
REMARK   17  A    between atoms: _47  and  _48
REMARK   18  A    between atoms: _47  and  _50
REMARK   19  A    between atoms: _50  and  _51
REMARK   20  A    between atoms: _54  and  _56
REMARK   21  A    between atoms: _56  and  _57
REMARK   22  A    between atoms: _56  and  _59
REMARK   23  A    between atoms: _59  and  _60
REMARK   24  A    between atoms: _60  and  _61
REMARK   25  A    between atoms: _64  and  _66
REMARK   26  A    between atoms: _66  and  _67
REMARK   27  A    between atoms: _66  and  _69
REMARK   28  A    between atoms: _69  and  _70
REMARK   29  A    between atoms: _73  and  _75
REMARK   30  A    between atoms: _75  and  _76
REMARK   31  A    between atoms: _78  and  _80
REMARK   32  A    between atoms: _80  and  _81
REMARK   33  A    between atoms: _80  and  _83
REMARK   34  A    between atoms: _83  and  _84
REMARK   35  A    between atoms: _87  and  _89
REMARK   36  A    between atoms: _89  and  _90
REMARK   37  A    between atoms: _93  and  _95
REMARK   38  A    between atoms: _95  and  _96
REMARK   39  A    between atoms: _95  and  _98
REMARK   40  A    between atoms: _98  and  _99
REMARK   41  A    between atoms: _102  and  _104
REMARK   42  A    between atoms: _104  and  _105
REMARK   43  A    between atoms: _107  and  _109
REMARK   44  A    between atoms: _109  and  _110
REMARK   45  A    between atoms: _109  and  _112
REMARK   46  A    between atoms: _112  and  _113
REMARK   47  A    between atoms: _116  and  _118
REMARK   48  A    between atoms: _118  and  _119
REMARK   49  A    between atoms: _118  and  _121
REMARK   50  A    between atoms: _121  and  _122
REMARK   51  A    between atoms: _125  and  _127
REMARK   52  A    between atoms: _127  and  _128
REMARK   53  A    between atoms: _130  and  _132
REMARK   54  A    between atoms: _132  and  _133
REMARK   55  A    between atoms: _132  and  _135
REMARK   56  A    between atoms: _135  and  _136
REMARK   57  A    between atoms: _139  and  _141
REMARK   58  A    between atoms: _141  and  _142
REMARK   59  A    between atoms: _141  and  _144
REMARK   60  A    between atoms: _144  and  _145
REMARK   61  A    between atoms: _148  and  _150
REMARK   62  A    between atoms: _150  and  _151
REMARK   63  A    between atoms: _150  and  _153
REMARK   64  A    between atoms: _153  and  _154
REMARK   65  A    between atoms: _154  and  _155
REMARK   66  A    between atoms: _157  and  _159
REMARK   67  A    between atoms: _159  and  _160
REMARK   68  A    between atoms: _159  and  _162
REMARK   69  A    between atoms: _162  and  _163
REMARK   70  A    between atoms: _168  and  _169
REMARK   71  A    between atoms: _171  and  _173
REMARK   72  A    between atoms: _173  and  _174
REMARK   73  A    between atoms: _173  and  _176
REMARK   74  A    between atoms: _176  and  _177
REMARK   75  A    between atoms: _180  and  _182
REMARK   76  A    between atoms: _182  and  _183
REMARK   77  A    between atoms: _182  and  _185
REMARK   78  A    between atoms: _188  and  _190
REMARK   79  A    between atoms: _190  and  _191
REMARK   80  A    between atoms: _194  and  _196
REMARK   81  A    between atoms: _196  and  _197
REMARK   82  A    between atoms: _196  and  _199
REMARK   83  A    between atoms: _199  and  _200
REMARK   84  A    between atoms: _203  and  _205
REMARK   85  A    between atoms: _205  and  _206
REMARK   86  A    between atoms: _205  and  _208
REMARK   87  A    between atoms: _212  and  _213
REMARK   88  A    between atoms: _218  and  _220
REMARK   89  A    between atoms: _220  and  _221
REMARK   90  A    between atoms: _220  and  _223
REMARK   91  A    between atoms: _223  and  _224
REMARK   92  A    between atoms: _227  and  _229
REMARK   93  A    between atoms: _229  and  _230
REMARK   94  A    between atoms: _229  and  _232
REMARK   95  A    between atoms: _232  and  _233
REMARK   96  A    between atoms: _239  and  _241
REMARK   97  A    between atoms: _241  and  _242
REMARK   98  A    between atoms: _241  and  _244
REMARK   99  A    between atoms: _244  and  _245
REMARK  100  A    between atoms: _248  and  _250
REMARK  101  A    between atoms: _250  and  _251
REMARK  102  A    between atoms: _250  and  _253
REMARK  103  A    between atoms: _256  and  _257
REMARK  104  A    between atoms: _262  and  _264
REMARK  105  A    between atoms: _264  and  _265
REMARK  106  A    between atoms: _264  and  _267
REMARK  107  A    between atoms: _267  and  _268
REMARK  108  A    between atoms: _273  and  _274
REMARK  109  A    between atoms: _276  and  _278
REMARK  110  A    between atoms: _278  and  _279
REMARK  111  A    between atoms: _278  and  _281
REMARK  112  A    between atoms: _281  and  _282
REMARK  113  A    between atoms: _287  and  _288
REMARK  114  A    between atoms: _290  and  _292
REMARK  115  A    between atoms: _292  and  _293
REMARK  116  A    between atoms: _292  and  _295
REMARK  117  A    between atoms: _295  and  _296
REMARK  118  A    between atoms: _299  and  _301
REMARK  119  A    between atoms: _301  and  _302
REMARK  120  A    between atoms: _301  and  _304
REMARK  121  A    between atoms: _304  and  _305
REMARK  122  A    between atoms: _307  and  _309
REMARK  123  A    between atoms: _309  and  _310
REMARK  124  A    between atoms: _309  and  _312
REMARK  125  A    between atoms: _312  and  _313
REMARK  126  A    between atoms: _313  and  _314
REMARK  127  A    between atoms: _314  and  _315
REMARK  128  A    between atoms: _324  and  _326
REMARK  129  A    between atoms: _326  and  _327
REMARK  130  A    between atoms: _329  and  _331
REMARK  131  A    between atoms: _331  and  _332
REMARK  132  A    between atoms: _331  and  _334
REMARK  133  A    between atoms: _337  and  _339
REMARK  134  A    between atoms: _339  and  _340
REMARK  135  A    between atoms: _339  and  _342
REMARK  136  A    between atoms: _342  and  _343
REMARK  137  A    between atoms: _346  and  _348
REMARK  138  A    between atoms: _348  and  _349
REMARK  139  A    between atoms: _351  and  _353
REMARK  140  A    between atoms: _353  and  _354
REMARK  141  A    between atoms: _353  and  _356
REMARK  142  A    between atoms: _356  and  _357
REMARK  143  A    between atoms: _360  and  _362
REMARK  144  A    between atoms: _362  and  _363
REMARK  145  A    between atoms: _362  and  _365
REMARK  146  A    between atoms: _365  and  _366
REMARK  147  A    between atoms: _366  and  _367
REMARK  148  A    between atoms: _372  and  _374
REMARK  149  A    between atoms: _374  and  _375
REMARK  150  A    between atoms: _377  and  _379
REMARK  151  A    between atoms: _379  and  _380
REMARK  152  A    between atoms: _379  and  _382
REMARK  153  A    between atoms: _382  and  _383
REMARK  154  A    between atoms: _389  and  _391
REMARK  155  A    between atoms: _391  and  _392
REMARK  156  A    between atoms: _394  and  _396
REMARK  157  A    between atoms: _396  and  _397
REMARK  158  A    between atoms: _396  and  _399
REMARK  159  A    between atoms: _399  and  _400
REMARK  160  A    between atoms: _403  and  _405
REMARK  161  A    between atoms: _405  and  _406
REMARK  162  A    between atoms: _405  and  _408
REMARK  163  A    between atoms: _408  and  _409
REMARK  164  A    between atoms: _411  and  _413
REMARK  165  A    between atoms: _413  and  _414
REMARK  166  A    between atoms: _413  and  _416
REMARK  167  A    between atoms: _416  and  _417
REMARK  168  A    between atoms: _417  and  _418
REMARK  169  A    between atoms: _423  and  _425
REMARK  170  A    between atoms: _425  and  _426
REMARK  171  A    between atoms: _429  and  _431
REMARK  172  A    between atoms: _431  and  _432
REMARK  173  A    between atoms: _431  and  _434
REMARK  174  A    between atoms: _434  and  _435
REMARK  175  A    between atoms: _438  and  _440
REMARK  176  A    between atoms: _440  and  _441
REMARK  177  A    between atoms: _440  and  _443
REMARK  178  A    between atoms: _443  and  _444
REMARK  179  A    between atoms: _446  and  _448
REMARK  180  A    between atoms: _448  and  _449
REMARK  181  A    between atoms: _451  and  _453
REMARK  182  A    between atoms: _453  and  _454
REMARK  183  A    between atoms: _453  and  _456
REMARK  184  A    between atoms: _456  and  _457
REMARK  185  A    between atoms: _459  and  _461
REMARK  186  A    between atoms: _461  and  _462
REMARK  187  A    between atoms: _465  and  _467
REMARK  188  A    between atoms: _467  and  _468
REMARK  189  A    between atoms: _467  and  _470
REMARK  190  A    between atoms: _470  and  _471
REMARK  191  A    between atoms: _474  and  _476
REMARK  192  A    between atoms: _476  and  _477
REMARK  193  A    between atoms: _476  and  _479
REMARK  194  A    between atoms: _482  and  _484
REMARK  195  A    between atoms: _484  and  _485
REMARK  196  A    between atoms: _488  and  _490
REMARK  197  A    between atoms: _490  and  _491
REMARK  198  A    between atoms: _490  and  _493
REMARK  199  A    between atoms: _497  and  _498
REMARK  200  A    between atoms: _503  and  _505
REMARK  201  A    between atoms: _505  and  _506
REMARK  202  A    between atoms: _505  and  _508
REMARK  203  A    between atoms: _508  and  _509
REMARK  204  A    between atoms: _509  and  _510
REMARK  205  A    between atoms: _515  and  _517
REMARK  206  A    between atoms: _517  and  _518
REMARK  207  A    between atoms: _517  and  _520
REMARK  208  A    between atoms: _520  and  _521
REMARK  209  A    between atoms: _524  and  _526
REMARK  210  A    between atoms: _526  and  _527
REMARK  211  A    between atoms: _526  and  _529
REMARK  212  A    between atoms: _529  and  _530
REMARK  213  A    between atoms: _533  and  _535
REMARK  214  A    between atoms: _535  and  _536
REMARK  215  A    between atoms: _535  and  _538
REMARK  216  A    between atoms: _538  and  _539
REMARK                            x       y       z     vdW  Elec       q    Type
REMARK                         _______ _______ _______ _____ _____    ______ ____
ROOT
ATOM      1  C   LEU A   3      52.223  26.315  21.758  0.00  0.00    +0.241 C 
ATOM      2  N   MET A   4      52.641  25.113  22.135  0.00  0.00    -0.297 N 
ATOM      3  H   MET A   4      52.006  24.297  22.024  0.00  0.00    +0.150 HD
ATOM      4  O   LEU A   3      52.918  27.331  21.843  0.00  0.00    -0.273 OA
ENDROOT
BRANCH   2   5
ATOM      5  CA  MET A   4      53.968  24.910  22.700  0.00  0.00    +0.149 C 
BRANCH   5   6
ATOM      6  C   MET A   4      54.821  23.946  21.900  0.00  0.00    +0.241 C 
ATOM      7  N   TYR A   5      56.108  23.948  22.224  0.00  0.00    -0.298 N 
ATOM      8  H   TYR A   5      56.445  24.638  22.925  0.00  0.00    +0.150 HD
ATOM      9  O   MET A   4      54.337  23.231  21.027  0.00  0.00    -0.273 OA
BRANCH   7  10
ATOM     10  CA  TYR A   5      57.062  23.026  21.640  0.00  0.00    +0.141 C 
BRANCH  10  11
ATOM     11  C   TYR A   5      57.531  22.243  22.857  0.00  0.00    +0.227 C 
ATOM     12  O   TYR A   5      57.677  22.801  23.947  0.00  0.00    -0.286 OA
ENDBRANCH  10  11
BRANCH  10  13
ATOM     13  CB  TYR A   5      58.202  23.774  20.949  0.00  0.00    +0.054 C 
BRANCH  13  14
ATOM     14  CG  TYR A   5      57.803  24.194  19.557  0.00  0.00    -0.020 A 
ATOM     15  CD2 TYR A   5      57.311  25.472  19.309  0.00  0.00    -0.001 A 
ATOM     16  CE2 TYR A   5      56.851  25.831  18.045  0.00  0.00    +0.036 A 
ATOM     17  CZ  TYR A   5      56.885  24.905  17.015  0.00  0.00    +0.134 A 
ATOM     18  CE1 TYR A   5      57.377  23.630  17.236  0.00  0.00    +0.036 A 
ATOM     19  CD1 TYR A   5      57.833  23.282  18.501  0.00  0.00    -0.001 A 
BRANCH  17  20
ATOM     20  OH  TYR A   5      56.414  25.250  15.767  0.00  0.00    -0.506 OA
ATOM     21  HH  TYR A   5      55.459  25.502  15.834  0.00  0.00    +0.292 HD
ENDBRANCH  17  20
ENDBRANCH  13  14
ENDBRANCH  10  13
ENDBRANCH   7  10
ENDBRANCH   5   6
BRANCH   5  22
ATOM     22  CB  MET A   4      53.855  24.328  24.115  0.00  0.00    +0.041 C 
BRANCH  22  23
ATOM     23  CG  MET A   4      53.012  25.115  25.101  0.00  0.00    +0.060 C 
BRANCH  23  24
ATOM     24  SD  MET A   4      53.675  26.744  25.394  0.00  0.00    -0.139 S 
ATOM     25  CE  MET A   4      55.284  26.354  26.056  0.00  0.00    +0.069 C 
ENDBRANCH  23  24
ENDBRANCH  22  23
ENDBRANCH   5  22
ENDBRANCH   2   5
BRANCH   1  26
ATOM     26  CA  LEU A   3      50.794  26.386  21.237  0.00  0.00    +0.149 C 
BRANCH  26  29
ATOM     27  C   LEU A   2      49.260  26.574  23.126  0.00  0.00    +0.241 C 
ATOM     28  O   LEU A   2      48.880  25.406  23.037  0.00  0.00    -0.273 OA
ATOM     29  N   LEU A   3      50.138  27.129  22.300  0.00  0.00    -0.297 N 
ATOM     30  H   LEU A   3      50.366  28.137  22.418  0.00  0.00    +0.150 HD
BRANCH  27  31
ATOM     31  CA  LEU A   2      48.723  27.482  24.215  0.00  0.00    +0.149 C 
BRANCH  31  33
ATOM     32  C   GLY A   1      46.347  27.915  24.070  0.00  0.00    +0.240 C 
ATOM     33  N   LEU A   2      47.337  27.151  24.516  0.00  0.00    -0.297 N 
ATOM     34  H   LEU A   2      47.121  26.308  25.086  0.00  0.00    +0.150 HD
ATOM     35  O   GLY A   1      46.540  28.941  23.415  0.00  0.00    -0.274 OA
BRANCH  32  36
ATOM     36  CA  GLY A   1      44.939  27.477  24.421  0.00  0.00    +0.169 C 
BRANCH  36  37
ATOM     37  N   GLY A   1      44.121  28.636  24.724  0.00  0.00    -0.236 NA
ATOM     38  H   GLY A   1      43.939  29.347  23.987  0.00  0.00    +0.142 HD
ENDBRANCH  36  37
ENDBRANCH  32  36
ENDBRANCH  31  33
BRANCH  31  39
ATOM     39  CB  LEU A   2      49.607  27.315  25.451  0.00  0.00    +0.029 C 
BRANCH  39  40
ATOM     40  CG  LEU A   2      49.269  28.147  26.685  0.00  0.00    +0.002 C 
ATOM     41  CD2 LEU A   2      50.343  27.920  27.743  0.00  0.00    +0.000 C 
ATOM     42  CD1 LEU A   2      49.190  29.615  26.311  0.00  0.00    +0.000 C 
ENDBRANCH  39  40
ENDBRANCH  31  39
ENDBRANCH  27  31
ENDBRANCH  26  29
BRANCH  26  43
ATOM     43  CB  LEU A   3      50.720  27.153  19.913  0.00  0.00    +0.029 C 
BRANCH  43  44
ATOM     44  CG  LEU A   3      51.426  26.559  18.689  0.00  0.00    +0.002 C 
ATOM     45  CD2 LEU A   3      52.923  26.791  18.792  0.00  0.00    +0.000 C 
ATOM     46  CD1 LEU A   3      51.115  25.077  18.579  0.00  0.00    +0.000 C 
ENDBRANCH  43  44
ENDBRANCH  26  43
ENDBRANCH   1  26
TORSDOF 20
REMARK  Name = ../refined-set-2016/2cli/2cli_pocket.pdb
REMARK  216 active torsions:
REMARK  status: ('A' for Active; 'I' for Inactive)
REMARK    1  A    between atoms: _1  and  _3
REMARK    2  A    between atoms: _3  and  _4
REMARK    3  A    between atoms: _3  and  _6
REMARK    4  A    between atoms: _10  and  _11
REMARK    5  A    between atoms: _16  and  _18
REMARK    6  A    between atoms: _18  and  _19
REMARK    7  A    between atoms: _18  and  _21
REMARK    8  A    between atoms: _21  and  _22
REMARK    9  A    between atoms: _28  and  _30
REMARK   10  A    between atoms: _30  and  _31
REMARK   11  A    between atoms: _30  and  _33
REMARK   12  A    between atoms: _36  and  _38
REMARK   13  A    between atoms: _38  and  _39
REMARK   14  A    between atoms: _38  and  _41
REMARK   15  A    between atoms: _41  and  _42
REMARK   16  A    between atoms: _45  and  _47
REMARK   17  A    between atoms: _47  and  _48
REMARK   18  A    between atoms: _47  and  _50
REMARK   19  A    between atoms: _50  and  _51
REMARK   20  A    between atoms: _54  and  _56
REMARK   21  A    between atoms: _56  and  _57
REMARK   22  A    between atoms: _56  and  _59
REMARK   23  A    between atoms: _59  and  _60
REMARK   24  A    between atoms: _60  and  _61
REMARK   25  A    between atoms: _64  and  _66
REMARK   26  A    between atoms: _66  and  _67
REMARK   27  A    between atoms: _66  and  _69
REMARK   28  A    between atoms: _69  and  _70
REMARK   29  A    between atoms: _73  and  _75
REMARK   30  A    between atoms: _75  and  _76
REMARK   31  A    between atoms: _78  and  _80
REMARK   32  A    between atoms: _80  and  _81
REMARK   33  A    between atoms: _80  and  _83
REMARK   34  A    between atoms: _83  and  _84
REMARK   35  A    between atoms: _87  and  _89
REMARK   36  A    between atoms: _89  and  _90
REMARK   37  A    between atoms: _93  and  _95
REMARK   38  A    between atoms: _95  and  _96
REMARK   39  A    between atoms: _95  and  _98
REMARK   40  A    between atoms: _98  and  _99
REMARK   41  A    between atoms: _102  and  _104
REMARK   42  A    between atoms: _104  and  _105
REMARK   43  A    between atoms: _107  and  _109
REMARK   44  A    between atoms: _109  and  _110
REMARK   45  A    between atoms: _109  and  _112
REMARK   46  A    between atoms: _112  and  _113
REMARK   47  A    between atoms: _116  and  _118
REMARK   48  A    between atoms: _118  and  _119
REMARK   49  A    between atoms: _118  and  _121
REMARK   50  A    between atoms: _121  and  _122
REMARK   51  A    between atoms: _125  and  _127
REMARK   52  A    between atoms: _127  and  _128
REMARK   53  A    between atoms: _130  and  _132
REMARK   54  A    between atoms: _132  and  _133
REMARK   55  A    between atoms: _132  and  _135
REMARK   56  A    between atoms: _135  and  _136
REMARK   57  A    between atoms: _139  and  _141
REMARK   58  A    between atoms: _141  and  _142
REMARK   59  A    between atoms: _141  and  _144
REMARK   60  A    between atoms: _144  and  _145
REMARK   61  A    between atoms: _148  and  _150
REMARK   62  A    between atoms: _150  and  _151
REMARK   63  A    between atoms: _150  and  _153
REMARK   64  A    between atoms: _153  and  _154
REMARK   65  A    between atoms: _154  and  _155
REMARK   66  A    between atoms: _157  and  _159
REMARK   67  A    between atoms: _159  and  _160
REMARK   68  A    between atoms: _159  and  _162
REMARK   69  A    between atoms: _162  and  _163
REMARK   70  A    between atoms: _168  and  _169
REMARK   71  A    between atoms: _171  and  _173
REMARK   72  A    between atoms: _173  and  _174
REMARK   73  A    between atoms: _173  and  _176
REMARK   74  A    between atoms: _176  and  _177
REMARK   75  A    between atoms: _180  and  _182
REMARK   76  A    between atoms: _182  and  _183
REMARK   77  A    between atoms: _182  and  _185
REMARK   78  A    between atoms: _188  and  _190
REMARK   79  A    between atoms: _190  and  _191
REMARK   80  A    between atoms: _194  and  _196
REMARK   81  A    between atoms: _196  and  _197
REMARK   82  A    between atoms: _196  and  _199
REMARK   83  A    between atoms: _199  and  _200
REMARK   84  A    between atoms: _203  and  _205
REMARK   85  A    between atoms: _205  and  _206
REMARK   86  A    between atoms: _205  and  _208
REMARK   87  A    between atoms: _212  and  _213
REMARK   88  A    between atoms: _218  and  _220
REMARK   89  A    between atoms: _220  and  _221
REMARK   90  A    between atoms: _220  and  _223
REMARK   91  A    between atoms: _223  and  _224
REMARK   92  A    between atoms: _227  and  _229
REMARK   93  A    between atoms: _229  and  _230
REMARK   94  A    between atoms: _229  and  _232
REMARK   95  A    between atoms: _232  and  _233
REMARK   96  A    between atoms: _239  and  _241
REMARK   97  A    between atoms: _241  and  _242
REMARK   98  A    between atoms: _241  and  _244
REMARK   99  A    between atoms: _244  and  _245
REMARK  100  A    between atoms: _248  and  _250
REMARK  101  A    between atoms: _250  and  _251
REMARK  102  A    between atoms: _250  and  _253
REMARK  103  A    between atoms: _256  and  _257
REMARK  104  A    between atoms: _262  and  _264
REMARK  105  A    between atoms: _264  and  _265
REMARK  106  A    between atoms: _264  and  _267
REMARK  107  A    between atoms: _267  and  _268
REMARK  108  A    between atoms: _273  and  _274
REMARK  109  A    between atoms: _276  and  _278
REMARK  110  A    between atoms: _278  and  _279
REMARK  111  A    between atoms: _278  and  _281
REMARK  112  A    between atoms: _281  and  _282
REMARK  113  A    between atoms: _287  and  _288
REMARK  114  A    between atoms: _290  and  _292
REMARK  115  A    between atoms: _292  and  _293
REMARK  116  A    between atoms: _292  and  _295
REMARK  117  A    between atoms: _295  and  _296
REMARK  118  A    between atoms: _299  and  _301
REMARK  119  A    between atoms: _301  and  _302
REMARK  120  A    between atoms: _301  and  _304
REMARK  121  A    between atoms: _304  and  _305
REMARK  122  A    between atoms: _307  and  _309
REMARK  123  A    between atoms: _309  and  _310
REMARK  124  A    between atoms: _309  and  _312
REMARK  125  A    between atoms: _312  and  _313
REMARK  126  A    between atoms: _313  and  _314
REMARK  127  A    between atoms: _314  and  _315
REMARK  128  A    between atoms: _324  and  _326
REMARK  129  A    between atoms: _326  and  _327
REMARK  130  A    between atoms: _329  and  _331
REMARK  131  A    between atoms: _331  and  _332
REMARK  132  A    between atoms: _331  and  _334
REMARK  133  A    between atoms: _337  and  _339
REMARK  134  A    between atoms: _339  and  _340
REMARK  135  A    between atoms: _339  and  _342
REMARK  136  A    between atoms: _342  and  _343
REMARK  137  A    between atoms: _346  and  _348
REMARK  138  A    between atoms: _348  and  _349
REMARK  139  A    between atoms: _351  and  _353
REMARK  140  A    between atoms: _353  and  _354
REMARK  141  A    between atoms: _353  and  _356
REMARK  142  A    between atoms: _356  and  _357
REMARK  143  A    between atoms: _360  and  _362
REMARK  144  A    between atoms: _362  and  _363
REMARK  145  A    between atoms: _362  and  _365
REMARK  146  A    between atoms: _365  and  _366
REMARK  147  A    between atoms: _366  and  _367
REMARK  148  A    between atoms: _372  and  _374
REMARK  149  A    between atoms: _374  and  _375
REMARK  150  A    between atoms: _377  and  _379
REMARK  151  A    between atoms: _379  and  _380
REMARK  152  A    between atoms: _379  and  _382
REMARK  153  A    between atoms: _382  and  _383
REMARK  154  A    between atoms: _389  and  _391
REMARK  155  A    between atoms: _391  and  _392
REMARK  156  A    between atoms: _394  and  _396
REMARK  157  A    between atoms: _396  and  _397
REMARK  158  A    between atoms: _396  and  _399
REMARK  159  A    between atoms: _399  and  _400
REMARK  160  A    between atoms: _403  and  _405
REMARK  161  A    between atoms: _405  and  _406
REMARK  162  A    between atoms: _405  and  _408
REMARK  163  A    between atoms: _408  and  _409
REMARK  164  A    between atoms: _411  and  _413
REMARK  165  A    between atoms: _413  and  _414
REMARK  166  A    between atoms: _413  and  _416
REMARK  167  A    between atoms: _416  and  _417
REMARK  168  A    between atoms: _417  and  _418
REMARK  169  A    between atoms: _423  and  _425
REMARK  170  A    between atoms: _425  and  _426
REMARK  171  A    between atoms: _429  and  _431
REMARK  172  A    between atoms: _431  and  _432
REMARK  173  A    between atoms: _431  and  _434
REMARK  174  A    between atoms: _434  and  _435
REMARK  175  A    between atoms: _438  and  _440
REMARK  176  A    between atoms: _440  and  _441
REMARK  177  A    between atoms: _440  and  _443
REMARK  178  A    between atoms: _443  and  _444
REMARK  179  A    between atoms: _446  and  _448
REMARK  180  A    between atoms: _448  and  _449
REMARK  181  A    between atoms: _451  and  _453
REMARK  182  A    between atoms: _453  and  _454
REMARK  183  A    between atoms: _453  and  _456
REMARK  184  A    between atoms: _456  and  _457
REMARK  185  A    between atoms: _459  and  _461
REMARK  186  A    between atoms: _461  and  _462
REMARK  187  A    between atoms: _465  and  _467
REMARK  188  A    between atoms: _467  and  _468
REMARK  189  A    between atoms: _467  and  _470
REMARK  190  A    between atoms: _470  and  _471
REMARK  191  A    between atoms: _474  and  _476
REMARK  192  A    between atoms: _476  and  _477
REMARK  193  A    between atoms: _476  and  _479
REMARK  194  A    between atoms: _482  and  _484
REMARK  195  A    between atoms: _484  and  _485
REMARK  196  A    between atoms: _488  and  _490
REMARK  197  A    between atoms: _490  and  _491
REMARK  198  A    between atoms: _490  and  _493
REMARK  199  A    between atoms: _497  and  _498
REMARK  200  A    between atoms: _503  and  _505
REMARK  201  A    between atoms: _505  and  _506
REMARK  202  A    between atoms: _505  and  _508
REMARK  203  A    between atoms: _508  and  _509
REMARK  204  A    between atoms: _509  and  _510
REMARK  205  A    between atoms: _515  and  _517
REMARK  206  A    between atoms: _517  and  _518
REMARK  207  A    between atoms: _517  and  _520
REMARK  208  A    between atoms: _520  and  _521
REMARK  209  A    between atoms: _524  and  _526
REMARK  210  A    between atoms: _526  and  _527
REMARK  211  A    between atoms: _526  and  _529
REMARK  212  A    between atoms: _529  and  _530
REMARK  213  A    between atoms: _533  and  _535
REMARK  214  A    between atoms: _535  and  _536
REMARK  215  A    between atoms: _535  and  _538
REMARK  216  A    between atoms: _538  and  _539
REMARK                            x       y       z     vdW  Elec       q    Type
REMARK                         _______ _______ _______ _____ _____    ______ ____
ROOT
ATOM      1  C   ALA A   3      54.306  19.628  17.818  0.00  0.00    +0.241 C 
ATOM      2  N   ASP A   4      55.379  19.384  18.560  0.00  0.00    -0.297 N 
ATOM      3  H   ASP A   4      55.581  19.969  19.396  0.00  0.00    +0.150 HD
ATOM      4  O   ALA A   3      54.020  18.949  16.827  0.00  0.00    -0.273 OA
ENDROOT
BRANCH   1   5
ATOM      5  CA  ALA A   3      53.412  20.793  18.222  0.00  0.00    +0.149 C 
ATOM      6  CB  ALA A   3      53.920  22.079  17.579  0.00  0.00    +0.031 C 
BRANCH   5   9
ATOM      7  C   VAL A   2      52.761  20.070  20.476  0.00  0.00    +0.241 C 
ATOM      8  O   VAL A   2      52.562  18.906  20.132  0.00  0.00    -0.273 OA
ATOM      9  N   ALA A   3      53.188  21.017  19.647  0.00  0.00    -0.297 N 
ATOM     10  H   ALA A   3      53.372  21.965  20.033  0.00  0.00    +0.150 HD
BRANCH   7  11
ATOM     11  CA  VAL A   2      52.512  20.518  21.910  0.00  0.00    +0.148 C 
BRANCH  11  13
ATOM     12  C   LEU A   1      50.431  21.753  21.932  0.00  0.00    +0.238 C 
ATOM     13  N   VAL A   2      51.060  20.588  22.050  0.00  0.00    -0.297 N 
ATOM     14  H   VAL A   2      50.516  19.723  22.243  0.00  0.00    +0.150 HD
ATOM     15  O   LEU A   1      51.029  22.816  21.763  0.00  0.00    -0.274 OA
BRANCH  12  16
ATOM     16  CA  LEU A   1      48.911  21.738  22.060  0.00  0.00    +0.145 C 
BRANCH  16  17
ATOM     17  N   LEU A   1      48.621  22.536  23.235  0.00  0.00    -0.238 NA
ATOM     18  H   LEU A   1      48.845  23.552  23.226  0.00  0.00    +0.142 HD
ENDBRANCH  16  17
BRANCH  16  19
ATOM     19  CB  LEU A   1      48.266  22.368  20.823  0.00  0.00    +0.026 C 
BRANCH  19  20
ATOM     20  CG  LEU A   1      48.317  21.584  19.508  0.00  0.00    +0.002 C 
ATOM     21  CD2 LEU A   1      49.752  21.490  18.998  0.00  0.00    +0.000 C 
ATOM     22  CD1 LEU A   1      47.425  22.275  18.483  0.00  0.00    +0.000 C 
ENDBRANCH  19  20
ENDBRANCH  16  19
ENDBRANCH  12  16
ENDBRANCH  11  13
BRANCH  11  23
ATOM     23  CB  VAL A   2      53.139  19.525  22.910  0.00  0.00    +0.027 C 
ATOM     24  CG2 VAL A   2      52.558  19.752  24.307  0.00  0.00    +0.002 C 
ATOM     25  CG1 VAL A   2      54.652  19.714  22.937  0.00  0.00    +0.002 C 
ENDBRANCH  11  23
ENDBRANCH   7  11
ENDBRANCH   5   9
ENDBRANCH   1   5
BRANCH   2  26
ATOM     26  CA  ASP A   4      56.274  18.290  18.196  0.00  0.00    +0.160 C 
BRANCH  26  27
ATOM     27  C   ASP A   4      56.134  17.026  19.037  0.00  0.00    +0.241 C 
ATOM     28  N   VAL A   5      54.935  16.809  19.563  0.00  0.00    -0.297 N 
ATOM     29  H   VAL A   5      54.183  17.513  19.419  0.00  0.00    +0.150 HD
ATOM     30  O   ASP A   4      57.083  16.262  19.204  0.00  0.00    -0.273 OA
BRANCH  28  31
ATOM     31  CA  VAL A   5      54.647  15.610  20.337  0.00  0.00    +0.149 C 
BRANCH  31  32
ATOM     32  C   VAL A   5      53.489  14.885  19.654  0.00  0.00    +0.244 C 
ATOM     33  O   VAL A   5      52.334  15.310  19.752  0.00  0.00    -0.273 OA
ATOM     34  N   PRO A   6      53.786  13.798  18.922  0.00  0.00    -0.273 N 
ATOM     35  CD  PRO A   6      55.118  13.230  18.633  0.00  0.00    +0.094 C 
ATOM     36  CG  PRO A   6      54.777  11.900  17.967  0.00  0.00    +0.024 C 
ATOM     37  CB  PRO A   6      53.514  12.223  17.214  0.00  0.00    +0.030 C 
ATOM     38  CA  PRO A   6      52.732  13.042  18.237  0.00  0.00    +0.140 C 
BRANCH  38  39
ATOM     39  C   PRO A   6      51.998  12.167  19.261  0.00  0.00    +0.227 C 
ATOM     40  O   PRO A   6      52.465  12.007  20.388  0.00  0.00    -0.286 OA
ENDBRANCH  38  39
ENDBRANCH  31  32
BRANCH  31  41
ATOM     41  CB  VAL A   5      54.248  15.942  21.792  0.00  0.00    +0.027 C 
ATOM     42  CG2 VAL A   5      55.440  16.531  22.535  0.00  0.00    +0.002 C 
ATOM     43  CG1 VAL A   5      53.779  14.674  22.510  0.00  0.00    +0.002 C 
ENDBRANCH  31  41
ENDBRANCH  28  31
ENDBRANCH  26  27
BRANCH  26  44
ATOM     44  CB  ASP A   4      57.732  18.778  18.178  0.00  0.00    +0.143 C 
BRANCH  44  45
ATOM     45  CG  ASP A   4      58.146  19.461  19.467  0.00  0.00    +0.367 C 
ATOM     46  OD2 ASP A   4      57.268  19.766  20.300  0.00  0.00    -0.246 OA
ATOM     47  OD1 ASP A   4      59.360  19.701  19.643  0.00  0.00    -0.246 OA
ENDBRANCH  44  45
ENDBRANCH  26  44
ENDBRANCH   2  26
TORSDOF 17
REMARK  Name = ../refined-set-2016/2cli/2cli_pocket.pdb
REMARK  216 active torsions:
REMARK  status: ('A' for Active; 'I' for Inactive)
REMARK    1  A    between atoms: _1  and  _3
REMARK    2  A    between atoms: _3  and  _4
REMARK    3  A    between atoms: _3  and  _6
REMARK    4  A    between atoms: _10  and  _11
REMARK    5  A    between atoms: _16  and  _18
REMARK    6  A    between atoms: _18  and  _19
REMARK    7  A    between atoms: _18  and  _21
REMARK    8  A    between atoms: _21  and  _22
REMARK    9  A    between atoms: _28  and  _30
REMARK   10  A    between atoms: _30  and  _31
REMARK   11  A    between atoms: _30  and  _33
REMARK   12  A    between atoms: _36  and  _38
REMARK   13  A    between atoms: _38  and  _39
REMARK   14  A    between atoms: _38  and  _41
REMARK   15  A    between atoms: _41  and  _42
REMARK   16  A    between atoms: _45  and  _47
REMARK   17  A    between atoms: _47  and  _48
REMARK   18  A    between atoms: _47  and  _50
REMARK   19  A    between atoms: _50  and  _51
REMARK   20  A    between atoms: _54  and  _56
REMARK   21  A    between atoms: _56  and  _57
REMARK   22  A    between atoms: _56  and  _59
REMARK   23  A    between atoms: _59  and  _60
REMARK   24  A    between atoms: _60  and  _61
REMARK   25  A    between atoms: _64  and  _66
REMARK   26  A    between atoms: _66  and  _67
REMARK   27  A    between atoms: _66  and  _69
REMARK   28  A    between atoms: _69  and  _70
REMARK   29  A    between atoms: _73  and  _75
REMARK   30  A    between atoms: _75  and  _76
REMARK   31  A    between atoms: _78  and  _80
REMARK   32  A    between atoms: _80  and  _81
REMARK   33  A    between atoms: _80  and  _83
REMARK   34  A    between atoms: _83  and  _84
REMARK   35  A    between atoms: _87  and  _89
REMARK   36  A    between atoms: _89  and  _90
REMARK   37  A    between atoms: _93  and  _95
REMARK   38  A    between atoms: _95  and  _96
REMARK   39  A    between atoms: _95  and  _98
REMARK   40  A    between atoms: _98  and  _99
REMARK   41  A    between atoms: _102  and  _104
REMARK   42  A    between atoms: _104  and  _105
REMARK   43  A    between atoms: _107  and  _109
REMARK   44  A    between atoms: _109  and  _110
REMARK   45  A    between atoms: _109  and  _112
REMARK   46  A    between atoms: _112  and  _113
REMARK   47  A    between atoms: _116  and  _118
REMARK   48  A    between atoms: _118  and  _119
REMARK   49  A    between atoms: _118  and  _121
REMARK   50  A    between atoms: _121  and  _122
REMARK   51  A    between atoms: _125  and  _127
REMARK   52  A    between atoms: _127  and  _128
REMARK   53  A    between atoms: _130  and  _132
REMARK   54  A    between atoms: _132  and  _133
REMARK   55  A    between atoms: _132  and  _135
REMARK   56  A    between atoms: _135  and  _136
REMARK   57  A    between atoms: _139  and  _141
REMARK   58  A    between atoms: _141  and  _142
REMARK   59  A    between atoms: _141  and  _144
REMARK   60  A    between atoms: _144  and  _145
REMARK   61  A    between atoms: _148  and  _150
REMARK   62  A    between atoms: _150  and  _151
REMARK   63  A    between atoms: _150  and  _153
REMARK   64  A    between atoms: _153  and  _154
REMARK   65  A    between atoms: _154  and  _155
REMARK   66  A    between atoms: _157  and  _159
REMARK   67  A    between atoms: _159  and  _160
REMARK   68  A    between atoms: _159  and  _162
REMARK   69  A    between atoms: _162  and  _163
REMARK   70  A    between atoms: _168  and  _169
REMARK   71  A    between atoms: _171  and  _173
REMARK   72  A    between atoms: _173  and  _174
REMARK   73  A    between atoms: _173  and  _176
REMARK   74  A    between atoms: _176  and  _177
REMARK   75  A    between atoms: _180  and  _182
REMARK   76  A    between atoms: _182  and  _183
REMARK   77  A    between atoms: _182  and  _185
REMARK   78  A    between atoms: _188  and  _190
REMARK   79  A    between atoms: _190  and  _191
REMARK   80  A    between atoms: _194  and  _196
REMARK   81  A    between atoms: _196  and  _197
REMARK   82  A    between atoms: _196  and  _199
REMARK   83  A    between atoms: _199  and  _200
REMARK   84  A    between atoms: _203  and  _205
REMARK   85  A    between atoms: _205  and  _206
REMARK   86  A    between atoms: _205  and  _208
REMARK   87  A    between atoms: _212  and  _213
REMARK   88  A    between atoms: _218  and  _220
REMARK   89  A    between atoms: _220  and  _221
REMARK   90  A    between atoms: _220  and  _223
REMARK   91  A    between atoms: _223  and  _224
REMARK   92  A    between atoms: _227  and  _229
REMARK   93  A    between atoms: _229  and  _230
REMARK   94  A    between atoms: _229  and  _232
REMARK   95  A    between atoms: _232  and  _233
REMARK   96  A    between atoms: _239  and  _241
REMARK   97  A    between atoms: _241  and  _242
REMARK   98  A    between atoms: _241  and  _244
REMARK   99  A    between atoms: _244  and  _245
REMARK  100  A    between atoms: _248  and  _250
REMARK  101  A    between atoms: _250  and  _251
REMARK  102  A    between atoms: _250  and  _253
REMARK  103  A    between atoms: _256  and  _257
REMARK  104  A    between atoms: _262  and  _264
REMARK  105  A    between atoms: _264  and  _265
REMARK  106  A    between atoms: _264  and  _267
REMARK  107  A    between atoms: _267  and  _268
REMARK  108  A    between atoms: _273  and  _274
REMARK  109  A    between atoms: _276  and  _278
REMARK  110  A    between atoms: _278  and  _279
REMARK  111  A    between atoms: _278  and  _281
REMARK  112  A    between atoms: _281  and  _282
REMARK  113  A    between atoms: _287  and  _288
REMARK  114  A    between atoms: _290  and  _292
REMARK  115  A    between atoms: _292  and  _293
REMARK  116  A    between atoms: _292  and  _295
REMARK  117  A    between atoms: _295  and  _296
REMARK  118  A    between atoms: _299  and  _301
REMARK  119  A    between atoms: _301  and  _302
REMARK  120  A    between atoms: _301  and  _304
REMARK  121  A    between atoms: _304  and  _305
REMARK  122  A    between atoms: _307  and  _309
REMARK  123  A    between atoms: _309  and  _310
REMARK  124  A    between atoms: _309  and  _312
REMARK  125  A    between atoms: _312  and  _313
REMARK  126  A    between atoms: _313  and  _314
REMARK  127  A    between atoms: _314  and  _315
REMARK  128  A    between atoms: _324  and  _326
REMARK  129  A    between atoms: _326  and  _327
REMARK  130  A    between atoms: _329  and  _331
REMARK  131  A    between atoms: _331  and  _332
REMARK  132  A    between atoms: _331  and  _334
REMARK  133  A    between atoms: _337  and  _339
REMARK  134  A    between atoms: _339  and  _340
REMARK  135  A    between atoms: _339  and  _342
REMARK  136  A    between atoms: _342  and  _343
REMARK  137  A    between atoms: _346  and  _348
REMARK  138  A    between atoms: _348  and  _349
REMARK  139  A    between atoms: _351  and  _353
REMARK  140  A    between atoms: _353  and  _354
REMARK  141  A    between atoms: _353  and  _356
REMARK  142  A    between atoms: _356  and  _357
REMARK  143  A    between atoms: _360  and  _362
REMARK  144  A    between atoms: _362  and  _363
REMARK  145  A    between atoms: _362  and  _365
REMARK  146  A    between atoms: _365  and  _366
REMARK  147  A    between atoms: _366  and  _367
REMARK  148  A    between atoms: _372  and  _374
REMARK  149  A    between atoms: _374  and  _375
REMARK  150  A    between atoms: _377  and  _379
REMARK  151  A    between atoms: _379  and  _380
REMARK  152  A    between atoms: _379  and  _382
REMARK  153  A    between atoms: _382  and  _383
REMARK  154  A    between atoms: _389  and  _391
REMARK  155  A    between atoms: _391  and  _392
REMARK  156  A    between atoms: _394  and  _396
REMARK  157  A    between atoms: _396  and  _397
REMARK  158  A    between atoms: _396  and  _399
REMARK  159  A    between atoms: _399  and  _400
REMARK  160  A    between atoms: _403  and  _405
REMARK  161  A    between atoms: _405  and  _406
REMARK  162  A    between atoms: _405  and  _408
REMARK  163  A    between atoms: _408  and  _409
REMARK  164  A    between atoms: _411  and  _413
REMARK  165  A    between atoms: _413  and  _414
REMARK  166  A    between atoms: _413  and  _416
REMARK  167  A    between atoms: _416  and  _417
REMARK  168  A    between atoms: _417  and  _418
REMARK  169  A    between atoms: _423  and  _425
REMARK  170  A    between atoms: _425  and  _426
REMARK  171  A    between atoms: _429  and  _431
REMARK  172  A    between atoms: _431  and  _432
REMARK  173  A    between atoms: _431  and  _434
REMARK  174  A    between atoms: _434  and  _435
REMARK  175  A    between atoms: _438  and  _440
REMARK  176  A    between atoms: _440  and  _441
REMARK  177  A    between atoms: _440  and  _443
REMARK  178  A    between atoms: _443  and  _444
REMARK  179  A    between atoms: _446  and  _448
REMARK  180  A    between atoms: _448  and  _449
REMARK  181  A    between atoms: _451  and  _453
REMARK  182  A    between atoms: _453  and  _454
REMARK  183  A    between atoms: _453  and  _456
REMARK  184  A    between atoms: _456  and  _457
REMARK  185  A    between atoms: _459  and  _461
REMARK  186  A    between atoms: _461  and  _462
REMARK  187  A    between atoms: _465  and  _467
REMARK  188  A    between atoms: _467  and  _468
REMARK  189  A    between atoms: _467  and  _470
REMARK  190  A    between atoms: _470  and  _471
REMARK  191  A    between atoms: _474  and  _476
REMARK  192  A    between atoms: _476  and  _477
REMARK  193  A    between atoms: _476  and  _479
REMARK  194  A    between atoms: _482  and  _484
REMARK  195  A    between atoms: _484  and  _485
REMARK  196  A    between atoms: _488  and  _490
REMARK  197  A    between atoms: _490  and  _491
REMARK  198  A    between atoms: _490  and  _493
REMARK  199  A    between atoms: _497  and  _498
REMARK  200  A    between atoms: _503  and  _505
REMARK  201  A    between atoms: _505  and  _506
REMARK  202  A    between atoms: _505  and  _508
REMARK  203  A    between atoms: _508  and  _509
REMARK  204  A    between atoms: _509  and  _510
REMARK  205  A    between atoms: _515  and  _517
REMARK  206  A    between atoms: _517  and  _518
REMARK  207  A    between atoms: _517  and  _520
REMARK  208  A    between atoms: _520  and  _521
REMARK  209  A    between atoms: _524  and  _526
REMARK  210  A    between atoms: _526  and  _527
REMARK  211  A    between atoms: _526  and  _529
REMARK  212  A    between atoms: _529  and  _530
REMARK  213  A    between atoms: _533  and  _535
REMARK  214  A    between atoms: _535  and  _536
REMARK  215  A    between atoms: _535  and  _538
REMARK  216  A    between atoms: _538  and  _539
REMARK                            x       y       z     vdW  Elec       q    Type
REMARK                         _______ _______ _______ _____ _____    ______ ____
ROOT
ATOM      1  C   PHE A   2      45.484  16.986  17.920  0.00  0.00    +0.241 C 
ATOM      2  O   PHE A   2      44.424  17.549  17.637  0.00  0.00    -0.273 OA
ATOM      3  N   ILE A   3      46.445  16.755  17.033  0.00  0.00    -0.297 N 
ATOM      4  H   ILE A   3      47.317  16.281  17.344  0.00  0.00    +0.150 HD
ENDROOT
BRANCH   3   5
ATOM      5  CA  ILE A   3      46.311  17.146  15.641  0.00  0.00    +0.149 C 
BRANCH   5   6
ATOM      6  C   ILE A   3      45.845  15.975  14.791  0.00  0.00    +0.241 C 
ATOM      7  O   ILE A   3      46.380  14.869  14.882  0.00  0.00    -0.273 OA
ATOM      8  N   CYS A   4      44.827  16.223  13.977  0.00  0.00    -0.296 N 
ATOM      9  H   CYS A   4      44.397  17.170  13.977  0.00  0.00    +0.150 HD
BRANCH   8  10
ATOM     10  CA  CYS A   4      44.298  15.205  13.086  0.00  0.00    +0.161 C 
BRANCH  10  11
ATOM     11  C   CYS A   4      44.710  15.584  11.667  0.00  0.00    +0.245 C 
ATOM     12  N   PRO A   5      45.731  14.903  11.122  0.00  0.00    -0.273 N 
ATOM     13  CD  PRO A   5      46.524  13.834  11.755  0.00  0.00    +0.094 C 
ATOM     14  CG  PRO A   5      47.205  13.190  10.566  0.00  0.00    +0.024 C 
ATOM     15  CB  PRO A   5      47.510  14.373   9.696  0.00  0.00    +0.030 C 
ATOM     16  CA  PRO A   5      46.215  15.178   9.766  0.00  0.00    +0.140 C 
ATOM     17  O   CYS A   4      44.138  16.495  11.066  0.00  0.00    -0.273 OA
BRANCH  16  18
ATOM     18  C   PRO A   5      45.201  14.750   8.708  0.00  0.00    +0.227 C 
ATOM     19  O   PRO A   5      44.335  13.913   8.967  0.00  0.00    -0.286 OA
ENDBRANCH  16  18
ENDBRANCH  10  11
BRANCH  10  20
ATOM     20  CB  CYS A   4      42.773  15.139  13.192  0.00  0.00    +0.098 C 
ATOM     21  SG  CYS A   4      42.008  13.883  12.136  0.00  0.00    -0.080 S 
ENDBRANCH  10  20
ENDBRANCH   8  10
ENDBRANCH   5   6
BRANCH   5  22
ATOM     22  CB  ILE A   3      47.657  17.678  15.075  0.00  0.00    +0.027 C 
ATOM     23  CG2 ILE A   3      47.588  17.787  13.564  0.00  0.00    +0.002 C 
BRANCH  22  24
ATOM     24  CG1 ILE A   3      47.970  19.054  15.670  0.00  0.00    +0.002 C 
ATOM     25  CD1 ILE A   3      48.229  19.037  17.160  0.00  0.00    +0.000 C 
ENDBRANCH  22  24
ENDBRANCH   5  22
ENDBRANCH   3   5
BRANCH   1  26
ATOM     26  CA  PHE A   2      45.774  16.523  19.340  0.00  0.00    +0.153 C 
BRANCH  26  29
ATOM     27  C   ILE A   1      45.825  18.191  21.106  0.00  0.00    +0.238 C 
ATOM     28  O   ILE A   1      47.055  18.241  21.096  0.00  0.00    -0.274 OA
ATOM     29  N   PHE A   2      45.125  17.396  20.306  0.00  0.00    -0.297 N 
ATOM     30  H   PHE A   2      44.087  17.397  20.371  0.00  0.00    +0.150 HD
BRANCH  27  31
ATOM     31  CA  ILE A   1      45.014  19.058  22.060  0.00  0.00    +0.145 C 
BRANCH  31  32
ATOM     32  N   ILE A   1      45.467  18.946  23.443  0.00  0.00    -0.238 NA
ATOM     33  H   ILE A   1      46.235  19.564  23.773  0.00  0.00    +0.142 HD
ENDBRANCH  31  32
BRANCH  31  34
ATOM     34  CB  ILE A   1      45.086  20.526  21.576  0.00  0.00    +0.025 C 
ATOM     35  CG2 ILE A   1      44.530  20.644  20.167  0.00  0.00    +0.002 C 
BRANCH  34  36
ATOM     36  CG1 ILE A   1      44.296  21.426  22.530  0.00  0.00    +0.002 C 
ATOM     37  CD1 ILE A   1      42.833  21.034  22.673  0.00  0.00    +0.000 C 
ENDBRANCH  34  36
ENDBRANCH  31  34
ENDBRANCH  27  31
ENDBRANCH  26  29
BRANCH  26  38
ATOM     38  CB  PHE A   2      45.299  15.082  19.538  0.00  0.00    +0.055 C 
BRANCH  38  39
ATOM     39  CG  PHE A   2      45.826  14.441  20.792  0.00  0.00    -0.020 A 
ATOM     40  CD2 PHE A   2      45.173  14.617  22.005  0.00  0.00    -0.004 A 
ATOM     41  CE2 PHE A   2      45.676  14.057  23.176  0.00  0.00    -0.000 A 
ATOM     42  CZ  PHE A   2      46.842  13.310  23.141  0.00  0.00    -0.000 A 
ATOM     43  CE1 PHE A   2      47.505  13.122  21.932  0.00  0.00    -0.000 A 
ATOM     44  CD1 PHE A   2      46.994  13.689  20.765  0.00  0.00    -0.004 A 
ENDBRANCH  38  39
ENDBRANCH  26  38
ENDBRANCH   1  26
TORSDOF 16
REMARK  Name = ../refined-set-2016/2cli/2cli_pocket.pdb
REMARK  216 active torsions:
REMARK  status: ('A' for Active; 'I' for Inactive)
REMARK    1  A    between atoms: _1  and  _3
REMARK    2  A    between atoms: _3  and  _4
REMARK    3  A    between atoms: _3  and  _6
REMARK    4  A    between atoms: _10  and  _11
REMARK    5  A    between atoms: _16  and  _18
REMARK    6  A    between atoms: _18  and  _19
REMARK    7  A    between atoms: _18  and  _21
REMARK    8  A    between atoms: _21  and  _22
REMARK    9  A    between atoms: _28  and  _30
REMARK   10  A    between atoms: _30  and  _31
REMARK   11  A    between atoms: _30  and  _33
REMARK   12  A    between atoms: _36  and  _38
REMARK   13  A    between atoms: _38  and  _39
REMARK   14  A    between atoms: _38  and  _41
REMARK   15  A    between atoms: _41  and  _42
REMARK   16  A    between atoms: _45  and  _47
REMARK   17  A    between atoms: _47  and  _48
REMARK   18  A    between atoms: _47  and  _50
REMARK   19  A    between atoms: _50  and  _51
REMARK   20  A    between atoms: _54  and  _56
REMARK   21  A    between atoms: _56  and  _57
REMARK   22  A    between atoms: _56  and  _59
REMARK   23  A    between atoms: _59  and  _60
REMARK   24  A    between atoms: _60  and  _61
REMARK   25  A    between atoms: _64  and  _66
REMARK   26  A    between atoms: _66  and  _67
REMARK   27  A    between atoms: _66  and  _69
REMARK   28  A    between atoms: _69  and  _70
REMARK   29  A    between atoms: _73  and  _75
REMARK   30  A    between atoms: _75  and  _76
REMARK   31  A    between atoms: _78  and  _80
REMARK   32  A    between atoms: _80  and  _81
REMARK   33  A    between atoms: _80  and  _83
REMARK   34  A    between atoms: _83  and  _84
REMARK   35  A    between atoms: _87  and  _89
REMARK   36  A    between atoms: _89  and  _90
REMARK   37  A    between atoms: _93  and  _95
REMARK   38  A    between atoms: _95  and  _96
REMARK   39  A    between atoms: _95  and  _98
REMARK   40  A    between atoms: _98  and  _99
REMARK   41  A    between atoms: _102  and  _104
REMARK   42  A    between atoms: _104  and  _105
REMARK   43  A    between atoms: _107  and  _109
REMARK   44  A    between atoms: _109  and  _110
REMARK   45  A    between atoms: _109  and  _112
REMARK   46  A    between atoms: _112  and  _113
REMARK   47  A    between atoms: _116  and  _118
REMARK   48  A    between atoms: _118  and  _119
REMARK   49  A    between atoms: _118  and  _121
REMARK   50  A    between atoms: _121  and  _122
REMARK   51  A    between atoms: _125  and  _127
REMARK   52  A    between atoms: _127  and  _128
REMARK   53  A    between atoms: _130  and  _132
REMARK   54  A    between atoms: _132  and  _133
REMARK   55  A    between atoms: _132  and  _135
REMARK   56  A    between atoms: _135  and  _136
REMARK   57  A    between atoms: _139  and  _141
REMARK   58  A    between atoms: _141  and  _142
REMARK   59  A    between atoms: _141  and  _144
REMARK   60  A    between atoms: _144  and  _145
REMARK   61  A    between atoms: _148  and  _150
REMARK   62  A    between atoms: _150  and  _151
REMARK   63  A    between atoms: _150  and  _153
REMARK   64  A    between atoms: _153  and  _154
REMARK   65  A    between atoms: _154  and  _155
REMARK   66  A    between atoms: _157  and  _159
REMARK   67  A    between atoms: _159  and  _160
REMARK   68  A    between atoms: _159  and  _162
REMARK   69  A    between atoms: _162  and  _163
REMARK   70  A    between atoms: _168  and  _169
REMARK   71  A    between atoms: _171  and  _173
REMARK   72  A    between atoms: _173  and  _174
REMARK   73  A    between atoms: _173  and  _176
REMARK   74  A    between atoms: _176  and  _177
REMARK   75  A    between atoms: _180  and  _182
REMARK   76  A    between atoms: _182  and  _183
REMARK   77  A    between atoms: _182  and  _185
REMARK   78  A    between atoms: _188  and  _190
REMARK   79  A    between atoms: _190  and  _191
REMARK   80  A    between atoms: _194  and  _196
REMARK   81  A    between atoms: _196  and  _197
REMARK   82  A    between atoms: _196  and  _199
REMARK   83  A    between atoms: _199  and  _200
REMARK   84  A    between atoms: _203  and  _205
REMARK   85  A    between atoms: _205  and  _206
REMARK   86  A    between atoms: _205  and  _208
REMARK   87  A    between atoms: _212  and  _213
REMARK   88  A    between atoms: _218  and  _220
REMARK   89  A    between atoms: _220  and  _221
REMARK   90  A    between atoms: _220  and  _223
REMARK   91  A    between atoms: _223  and  _224
REMARK   92  A    between atoms: _227  and  _229
REMARK   93  A    between atoms: _229  and  _230
REMARK   94  A    between atoms: _229  and  _232
REMARK   95  A    between atoms: _232  and  _233
REMARK   96  A    between atoms: _239  and  _241
REMARK   97  A    between atoms: _241  and  _242
REMARK   98  A    between atoms: _241  and  _244
REMARK   99  A    between atoms: _244  and  _245
REMARK  100  A    between atoms: _248  and  _250
REMARK  101  A    between atoms: _250  and  _251
REMARK  102  A    between atoms: _250  and  _253
REMARK  103  A    between atoms: _256  and  _257
REMARK  104  A    between atoms: _262  and  _264
REMARK  105  A    between atoms: _264  and  _265
REMARK  106  A    between atoms: _264  and  _267
REMARK  107  A    between atoms: _267  and  _268
REMARK  108  A    between atoms: _273  and  _274
REMARK  109  A    between atoms: _276  and  _278
REMARK  110  A    between atoms: _278  and  _279
REMARK  111  A    between atoms: _278  and  _281
REMARK  112  A    between atoms: _281  and  _282
REMARK  113  A    between atoms: _287  and  _288
REMARK  114  A    between atoms: _290  and  _292
REMARK  115  A    between atoms: _292  and  _293
REMARK  116  A    between atoms: _292  and  _295
REMARK  117  A    between atoms: _295  and  _296
REMARK  118  A    between atoms: _299  and  _301
REMARK  119  A    between atoms: _301  and  _302
REMARK  120  A    between atoms: _301  and  _304
REMARK  121  A    between atoms: _304  and  _305
REMARK  122  A    between atoms: _307  and  _309
REMARK  123  A    between atoms: _309  and  _310
REMARK  124  A    between atoms: _309  and  _312
REMARK  125  A    between atoms: _312  and  _313
REMARK  126  A    between atoms: _313  and  _314
REMARK  127  A    between atoms: _314  and  _315
REMARK  128  A    between atoms: _324  and  _326
REMARK  129  A    between atoms: _326  and  _327
REMARK  130  A    between atoms: _329  and  _331
REMARK  131  A    between atoms: _331  and  _332
REMARK  132  A    between atoms: _331  and  _334
REMARK  133  A    between atoms: _337  and  _339
REMARK  134  A    between atoms: _339  and  _340
REMARK  135  A    between atoms: _339  and  _342
REMARK  136  A    between atoms: _342  and  _343
REMARK  137  A    between atoms: _346  and  _348
REMARK  138  A    between atoms: _348  and  _349
REMARK  139  A    between atoms: _351  and  _353
REMARK  140  A    between atoms: _353  and  _354
REMARK  141  A    between atoms: _353  and  _356
REMARK  142  A    between atoms: _356  and  _357
REMARK  143  A    between atoms: _360  and  _362
REMARK  144  A    between atoms: _362  and  _363
REMARK  145  A    between atoms: _362  and  _365
REMARK  146  A    between atoms: _365  and  _366
REMARK  147  A    between atoms: _366  and  _367
REMARK  148  A    between atoms: _372  and  _374
REMARK  149  A    between atoms: _374  and  _375
REMARK  150  A    between atoms: _377  and  _379
REMARK  151  A    between atoms: _379  and  _380
REMARK  152  A    between atoms: _379  and  _382
REMARK  153  A    between atoms: _382  and  _383
REMARK  154  A    between atoms: _389  and  _391
REMARK  155  A    between atoms: _391  and  _392
REMARK  156  A    between atoms: _394  and  _396
REMARK  157  A    between atoms: _396  and  _397
REMARK  158  A    between atoms: _396  and  _399
REMARK  159  A    between atoms: _399  and  _400
REMARK  160  A    between atoms: _403  and  _405
REMARK  161  A    between atoms: _405  and  _406
REMARK  162  A    between atoms: _405  and  _408
REMARK  163  A    between atoms: _408  and  _409
REMARK  164  A    between atoms: _411  and  _413
REMARK  165  A    between atoms: _413  and  _414
REMARK  166  A    between atoms: _413  and  _416
REMARK  167  A    between atoms: _416  and  _417
REMARK  168  A    between atoms: _417  and  _418
REMARK  169  A    between atoms: _423  and  _425
REMARK  170  A    between atoms: _425  and  _426
REMARK  171  A    between atoms: _429  and  _431
REMARK  172  A    between atoms: _431  and  _432
REMARK  173  A    between atoms: _431  and  _434
REMARK  174  A    between atoms: _434  and  _435
REMARK  175  A    between atoms: _438  and  _440
REMARK  176  A    between atoms: _440  and  _441
REMARK  177  A    between atoms: _440  and  _443
REMARK  178  A    between atoms: _443  and  _444
REMARK  179  A    between atoms: _446  and  _448
REMARK  180  A    between atoms: _448  and  _449
REMARK  181  A    between atoms: _451  and  _453
REMARK  182  A    between atoms: _453  and  _454
REMARK  183  A    between atoms: _453  and  _456
REMARK  184  A    between atoms: _456  and  _457
REMARK  185  A    between atoms: _459  and  _461
REMARK  186  A    between atoms: _461  and  _462
REMARK  187  A    between atoms: _465  and  _467
REMARK  188  A    between atoms: _467  and  _468
REMARK  189  A    between atoms: _467  and  _470
REMARK  190  A    between atoms: _470  and  _471
REMARK  191  A    between atoms: _474  and  _476
REMARK  192  A    between atoms: _476  and  _477
REMARK  193  A    between atoms: _476  and  _479
REMARK  194  A    between atoms: _482  and  _484
REMARK  195  A    between atoms: _484  and  _485
REMARK  196  A    between atoms: _488  and  _490
REMARK  197  A    between atoms: _490  and  _491
REMARK  198  A    between atoms: _490  and  _493
REMARK  199  A    between atoms: _497  and  _498
REMARK  200  A    between atoms: _503  and  _505
REMARK  201  A    between atoms: _505  and  _506
REMARK  202  A    between atoms: _505  and  _508
REMARK  203  A    between atoms: _508  and  _509
REMARK  204  A    between atoms: _509  and  _510
REMARK  205  A    between atoms: _515  and  _517
REMARK  206  A    between atoms: _517  and  _518
REMARK  207  A    between atoms: _517  and  _520
REMARK  208  A    between atoms: _520  and  _521
REMARK  209  A    between atoms: _524  and  _526
REMARK  210  A    between atoms: _526  and  _527
REMARK  211  A    between atoms: _526  and  _529
REMARK  212  A    between atoms: _529  and  _530
REMARK  213  A    between atoms: _533  and  _535
REMARK  214  A    between atoms: _535  and  _536
REMARK  215  A    between atoms: _535  and  _538
REMARK  216  A    between atoms: _538  and  _539
REMARK                            x       y       z     vdW  Elec       q    Type
REMARK                         _______ _______ _______ _____ _____    ______ ____
ROOT
ATOM      1  CG  TYR A   1      40.128  22.623  19.997  0.00  0.00    -0.020 A 
ATOM      2  CD2 TYR A   1      40.693  23.417  20.997  0.00  0.00    -0.001 A 
ATOM      3  CE2 TYR A   1      41.948  24.006  20.826  0.00  0.00    +0.036 A 
ATOM      4  CZ  TYR A   1      42.643  23.799  19.643  0.00  0.00    +0.134 A 
ATOM      5  CE1 TYR A   1      42.098  23.016  18.639  0.00  0.00    +0.036 A 
ATOM      6  CD1 TYR A   1      40.852  22.434  18.820  0.00  0.00    -0.001 A 
ENDROOT
BRANCH   4   7
ATOM      7  OH  TYR A   1      43.885  24.365  19.460  0.00  0.00    -0.506 OA
ATOM      8  HH  TYR A   1      43.810  25.350  19.522  0.00  0.00    +0.292 HD
ENDBRANCH   4   7
BRANCH   1   9
ATOM      9  CB  TYR A   1      38.765  21.980  20.183  0.00  0.00    +0.051 C 
BRANCH   9  10
ATOM     10  CA  TYR A   1      38.778  20.534  20.715  0.00  0.00    +0.137 C 
BRANCH  10  11
ATOM     11  N   TYR A   1      39.079  20.505  22.138  0.00  0.00    -0.239 NA
ATOM     12  H   TYR A   1      40.041  20.263  22.449  0.00  0.00    +0.142 HD
ENDBRANCH  10  11
BRANCH  10  13
ATOM     13  C   TYR A   1      39.804  19.692  19.968  0.00  0.00    +0.224 C 
ATOM     14  O   TYR A   1      40.910  19.475  20.456  0.00  0.00    -0.287 OA
ENDBRANCH  10  13
ENDBRANCH   9  10
ENDBRANCH   1   9
TORSDOF 5
REMARK  Name = ../refined-set-2016/2cli/2cli_pocket.pdb
REMARK  216 active torsions:
REMARK  status: ('A' for Active; 'I' for Inactive)
REMARK    1  A    between atoms: _1  and  _3
REMARK    2  A    between atoms: _3  and  _4
REMARK    3  A    between atoms: _3  and  _6
REMARK    4  A    between atoms: _10  and  _11
REMARK    5  A    between atoms: _16  and  _18
REMARK    6  A    between atoms: _18  and  _19
REMARK    7  A    between atoms: _18  and  _21
REMARK    8  A    between atoms: _21  and  _22
REMARK    9  A    between atoms: _28  and  _30
REMARK   10  A    between atoms: _30  and  _31
REMARK   11  A    between atoms: _30  and  _33
REMARK   12  A    between atoms: _36  and  _38
REMARK   13  A    between atoms: _38  and  _39
REMARK   14  A    between atoms: _38  and  _41
REMARK   15  A    between atoms: _41  and  _42
REMARK   16  A    between atoms: _45  and  _47
REMARK   17  A    between atoms: _47  and  _48
REMARK   18  A    between atoms: _47  and  _50
REMARK   19  A    between atoms: _50  and  _51
REMARK   20  A    between atoms: _54  and  _56
REMARK   21  A    between atoms: _56  and  _57
REMARK   22  A    between atoms: _56  and  _59
REMARK   23  A    between atoms: _59  and  _60
REMARK   24  A    between atoms: _60  and  _61
REMARK   25  A    between atoms: _64  and  _66
REMARK   26  A    between atoms: _66  and  _67
REMARK   27  A    between atoms: _66  and  _69
REMARK   28  A    between atoms: _69  and  _70
REMARK   29  A    between atoms: _73  and  _75
REMARK   30  A    between atoms: _75  and  _76
REMARK   31  A    between atoms: _78  and  _80
REMARK   32  A    between atoms: _80  and  _81
REMARK   33  A    between atoms: _80  and  _83
REMARK   34  A    between atoms: _83  and  _84
REMARK   35  A    between atoms: _87  and  _89
REMARK   36  A    between atoms: _89  and  _90
REMARK   37  A    between atoms: _93  and  _95
REMARK   38  A    between atoms: _95  and  _96
REMARK   39  A    between atoms: _95  and  _98
REMARK   40  A    between atoms: _98  and  _99
REMARK   41  A    between atoms: _102  and  _104
REMARK   42  A    between atoms: _104  and  _105
REMARK   43  A    between atoms: _107  and  _109
REMARK   44  A    between atoms: _109  and  _110
REMARK   45  A    between atoms: _109  and  _112
REMARK   46  A    between atoms: _112  and  _113
REMARK   47  A    between atoms: _116  and  _118
REMARK   48  A    between atoms: _118  and  _119
REMARK   49  A    between atoms: _118  and  _121
REMARK   50  A    between atoms: _121  and  _122
REMARK   51  A    between atoms: _125  and  _127
REMARK   52  A    between atoms: _127  and  _128
REMARK   53  A    between atoms: _130  and  _132
REMARK   54  A    between atoms: _132  and  _133
REMARK   55  A    between atoms: _132  and  _135
REMARK   56  A    between atoms: _135  and  _136
REMARK   57  A    between atoms: _139  and  _141
REMARK   58  A    between atoms: _141  and  _142
REMARK   59  A    between atoms: _141  and  _144
REMARK   60  A    between atoms: _144  and  _145
REMARK   61  A    between atoms: _148  and  _150
REMARK   62  A    between atoms: _150  and  _151
REMARK   63  A    between atoms: _150  and  _153
REMARK   64  A    between atoms: _153  and  _154
REMARK   65  A    between atoms: _154  and  _155
REMARK   66  A    between atoms: _157  and  _159
REMARK   67  A    between atoms: _159  and  _160
REMARK   68  A    between atoms: _159  and  _162
REMARK   69  A    between atoms: _162  and  _163
REMARK   70  A    between atoms: _168  and  _169
REMARK   71  A    between atoms: _171  and  _173
REMARK   72  A    between atoms: _173  and  _174
REMARK   73  A    between atoms: _173  and  _176
REMARK   74  A    between atoms: _176  and  _177
REMARK   75  A    between atoms: _180  and  _182
REMARK   76  A    between atoms: _182  and  _183
REMARK   77  A    between atoms: _182  and  _185
REMARK   78  A    between atoms: _188  and  _190
REMARK   79  A    between atoms: _190  and  _191
REMARK   80  A    between atoms: _194  and  _196
REMARK   81  A    between atoms: _196  and  _197
REMARK   82  A    between atoms: _196  and  _199
REMARK   83  A    between atoms: _199  and  _200
REMARK   84  A    between atoms: _203  and  _205
REMARK   85  A    between atoms: _205  and  _206
REMARK   86  A    between atoms: _205  and  _208
REMARK   87  A    between atoms: _212  and  _213
REMARK   88  A    between atoms: _218  and  _220
REMARK   89  A    between atoms: _220  and  _221
REMARK   90  A    between atoms: _220  and  _223
REMARK   91  A    between atoms: _223  and  _224
REMARK   92  A    between atoms: _227  and  _229
REMARK   93  A    between atoms: _229  and  _230
REMARK   94  A    between atoms: _229  and  _232
REMARK   95  A    between atoms: _232  and  _233
REMARK   96  A    between atoms: _239  and  _241
REMARK   97  A    between atoms: _241  and  _242
REMARK   98  A    between atoms: _241  and  _244
REMARK   99  A    between atoms: _244  and  _245
REMARK  100  A    between atoms: _248  and  _250
REMARK  101  A    between atoms: _250  and  _251
REMARK  102  A    between atoms: _250  and  _253
REMARK  103  A    between atoms: _256  and  _257
REMARK  104  A    between atoms: _262  and  _264
REMARK  105  A    between atoms: _264  and  _265
REMARK  106  A    between atoms: _264  and  _267
REMARK  107  A    between atoms: _267  and  _268
REMARK  108  A    between atoms: _273  and  _274
REMARK  109  A    between atoms: _276  and  _278
REMARK  110  A    between atoms: _278  and  _279
REMARK  111  A    between atoms: _278  and  _281
REMARK  112  A    between atoms: _281  and  _282
REMARK  113  A    between atoms: _287  and  _288
REMARK  114  A    between atoms: _290  and  _292
REMARK  115  A    between atoms: _292  and  _293
REMARK  116  A    between atoms: _292  and  _295
REMARK  117  A    between atoms: _295  and  _296
REMARK  118  A    between atoms: _299  and  _301
REMARK  119  A    between atoms: _301  and  _302
REMARK  120  A    between atoms: _301  and  _304
REMARK  121  A    between atoms: _304  and  _305
REMARK  122  A    between atoms: _307  and  _309
REMARK  123  A    between atoms: _309  and  _310
REMARK  124  A    between atoms: _309  and  _312
REMARK  125  A    between atoms: _312  and  _313
REMARK  126  A    between atoms: _313  and  _314
REMARK  127  A    between atoms: _314  and  _315
REMARK  128  A    between atoms: _324  and  _326
REMARK  129  A    between atoms: _326  and  _327
REMARK  130  A    between atoms: _329  and  _331
REMARK  131  A    between atoms: _331  and  _332
REMARK  132  A    between atoms: _331  and  _334
REMARK  133  A    between atoms: _337  and  _339
REMARK  134  A    between atoms: _339  and  _340
REMARK  135  A    between atoms: _339  and  _342
REMARK  136  A    between atoms: _342  and  _343
REMARK  137  A    between atoms: _346  and  _348
REMARK  138  A    between atoms: _348  and  _349
REMARK  139  A    between atoms: _351  and  _353
REMARK  140  A    between atoms: _353  and  _354
REMARK  141  A    between atoms: _353  and  _356
REMARK  142  A    between atoms: _356  and  _357
REMARK  143  A    between atoms: _360  and  _362
REMARK  144  A    between atoms: _362  and  _363
REMARK  145  A    between atoms: _362  and  _365
REMARK  146  A    between atoms: _365  and  _366
REMARK  147  A    between atoms: _366  and  _367
REMARK  148  A    between atoms: _372  and  _374
REMARK  149  A    between atoms: _374  and  _375
REMARK  150  A    between atoms: _377  and  _379
REMARK  151  A    between atoms: _379  and  _380
REMARK  152  A    between atoms: _379  and  _382
REMARK  153  A    between atoms: _382  and  _383
REMARK  154  A    between atoms: _389  and  _391
REMARK  155  A    between atoms: _391  and  _392
REMARK  156  A    between atoms: _394  and  _396
REMARK  157  A    between atoms: _396  and  _397
REMARK  158  A    between atoms: _396  and  _399
REMARK  159  A    between atoms: _399  and  _400
REMARK  160  A    between atoms: _403  and  _405
REMARK  161  A    between atoms: _405  and  _406
REMARK  162  A    between atoms: _405  and  _408
REMARK  163  A    between atoms: _408  and  _409
REMARK  164  A    between atoms: _411  and  _413
REMARK  165  A    between atoms: _413  and  _414
REMARK  166  A    between atoms: _413  and  _416
REMARK  167  A    between atoms: _416  and  _417
REMARK  168  A    between atoms: _417  and  _418
REMARK  169  A    between atoms: _423  and  _425
REMARK  170  A    between atoms: _425  and  _426
REMARK  171  A    between atoms: _429  and  _431
REMARK  172  A    between atoms: _431  and  _432
REMARK  173  A    between atoms: _431  and  _434
REMARK  174  A    between atoms: _434  and  _435
REMARK  175  A    between atoms: _438  and  _440
REMARK  176  A    between atoms: _440  and  _441
REMARK  177  A    between atoms: _440  and  _443
REMARK  178  A    between atoms: _443  and  _444
REMARK  179  A    between atoms: _446  and  _448
REMARK  180  A    between atoms: _448  and  _449
REMARK  181  A    between atoms: _451  and  _453
REMARK  182  A    between atoms: _453  and  _454
REMARK  183  A    between atoms: _453  and  _456
REMARK  184  A    between atoms: _456  and  _457
REMARK  185  A    between atoms: _459  and  _461
REMARK  186  A    between atoms: _461  and  _462
REMARK  187  A    between atoms: _465  and  _467
REMARK  188  A    between atoms: _467  and  _468
REMARK  189  A    between atoms: _467  and  _470
REMARK  190  A    between atoms: _470  and  _471
REMARK  191  A    between atoms: _474  and  _476
REMARK  192  A    between atoms: _476  and  _477
REMARK  193  A    between atoms: _476  and  _479
REMARK  194  A    between atoms: _482  and  _484
REMARK  195  A    between atoms: _484  and  _485
REMARK  196  A    between atoms: _488  and  _490
REMARK  197  A    between atoms: _490  and  _491
REMARK  198  A    between atoms: _490  and  _493
REMARK  199  A    between atoms: _497  and  _498
REMARK  200  A    between atoms: _503  and  _505
REMARK  201  A    between atoms: _505  and  _506
REMARK  202  A    between atoms: _505  and  _508
REMARK  203  A    between atoms: _508  and  _509
REMARK  204  A    between atoms: _509  and  _510
REMARK  205  A    between atoms: _515  and  _517
REMARK  206  A    between atoms: _517  and  _518
REMARK  207  A    between atoms: _517  and  _520
REMARK  208  A    between atoms: _520  and  _521
REMARK  209  A    between atoms: _524  and  _526
REMARK  210  A    between atoms: _526  and  _527
REMARK  211  A    between atoms: _526  and  _529
REMARK  212  A    between atoms: _529  and  _530
REMARK  213  A    between atoms: _533  and  _535
REMARK  214  A    between atoms: _535  and  _536
REMARK  215  A    between atoms: _535  and  _538
REMARK  216  A    between atoms: _538  and  _539
REMARK                            x       y       z     vdW  Elec       q    Type
REMARK                         _______ _______ _______ _____ _____    ______ ____
ROOT
ATOM      1  CG  TYR A   1      44.754  21.838  15.428  0.00  0.00    -0.020 A 
ATOM      2  CD2 TYR A   1      44.946  23.063  16.065  0.00  0.00    -0.001 A 
ATOM      3  CE2 TYR A   1      45.421  24.170  15.369  0.00  0.00    +0.036 A 
ATOM      4  CZ  TYR A   1      45.711  24.055  14.020  0.00  0.00    +0.134 A 
ATOM      5  CE1 TYR A   1      45.529  22.849  13.364  0.00  0.00    +0.036 A 
ATOM      6  CD1 TYR A   1      45.053  21.749  14.068  0.00  0.00    -0.001 A 
ENDROOT
BRANCH   4   7
ATOM      7  OH  TYR A   1      46.188  25.142  13.329  0.00  0.00    -0.506 OA
ATOM      8  HH  TYR A   1      47.040  25.442  13.735  0.00  0.00    +0.292 HD
ENDBRANCH   4   7
BRANCH   1   9
ATOM      9  CB  TYR A   1      44.215  20.644  16.186  0.00  0.00    +0.051 C 
BRANCH   9  10
ATOM     10  CA  TYR A   1      42.786  20.265  15.786  0.00  0.00    +0.137 C 
BRANCH  10  11
ATOM     11  N   TYR A   1      42.186  19.393  16.782  0.00  0.00    -0.239 NA
ATOM     12  H   TYR A   1      42.793  18.815  17.397  0.00  0.00    +0.142 HD
ENDBRANCH  10  11
BRANCH  10  13
ATOM     13  C   TYR A   1      42.793  19.555  14.443  0.00  0.00    +0.224 C 
ATOM     14  O   TYR A   1      43.497  18.567  14.256  0.00  0.00    -0.287 OA
ENDBRANCH  10  13
ENDBRANCH   9  10
ENDBRANCH   1   9
TORSDOF 5
REMARK  Name = ../refined-set-2016/2cli/2cli_pocket.pdb
REMARK  216 active torsions:
REMARK  status: ('A' for Active; 'I' for Inactive)
REMARK    1  A    between atoms: _1  and  _3
REMARK    2  A    between atoms: _3  and  _4
REMARK    3  A    between atoms: _3  and  _6
REMARK    4  A    between atoms: _10  and  _11
REMARK    5  A    between atoms: _16  and  _18
REMARK    6  A    between atoms: _18  and  _19
REMARK    7  A    between atoms: _18  and  _21
REMARK    8  A    between atoms: _21  and  _22
REMARK    9  A    between atoms: _28  and  _30
REMARK   10  A    between atoms: _30  and  _31
REMARK   11  A    between atoms: _30  and  _33
REMARK   12  A    between atoms: _36  and  _38
REMARK   13  A    between atoms: _38  and  _39
REMARK   14  A    between atoms: _38  and  _41
REMARK   15  A    between atoms: _41  and  _42
REMARK   16  A    between atoms: _45  and  _47
REMARK   17  A    between atoms: _47  and  _48
REMARK   18  A    between atoms: _47  and  _50
REMARK   19  A    between atoms: _50  and  _51
REMARK   20  A    between atoms: _54  and  _56
REMARK   21  A    between atoms: _56  and  _57
REMARK   22  A    between atoms: _56  and  _59
REMARK   23  A    between atoms: _59  and  _60
REMARK   24  A    between atoms: _60  and  _61
REMARK   25  A    between atoms: _64  and  _66
REMARK   26  A    between atoms: _66  and  _67
REMARK   27  A    between atoms: _66  and  _69
REMARK   28  A    between atoms: _69  and  _70
REMARK   29  A    between atoms: _73  and  _75
REMARK   30  A    between atoms: _75  and  _76
REMARK   31  A    between atoms: _78  and  _80
REMARK   32  A    between atoms: _80  and  _81
REMARK   33  A    between atoms: _80  and  _83
REMARK   34  A    between atoms: _83  and  _84
REMARK   35  A    between atoms: _87  and  _89
REMARK   36  A    between atoms: _89  and  _90
REMARK   37  A    between atoms: _93  and  _95
REMARK   38  A    between atoms: _95  and  _96
REMARK   39  A    between atoms: _95  and  _98
REMARK   40  A    between atoms: _98  and  _99
REMARK   41  A    between atoms: _102  and  _104
REMARK   42  A    between atoms: _104  and  _105
REMARK   43  A    between atoms: _107  and  _109
REMARK   44  A    between atoms: _109  and  _110
REMARK   45  A    between atoms: _109  and  _112
REMARK   46  A    between atoms: _112  and  _113
REMARK   47  A    between atoms: _116  and  _118
REMARK   48  A    between atoms: _118  and  _119
REMARK   49  A    between atoms: _118  and  _121
REMARK   50  A    between atoms: _121  and  _122
REMARK   51  A    between atoms: _125  and  _127
REMARK   52  A    between atoms: _127  and  _128
REMARK   53  A    between atoms: _130  and  _132
REMARK   54  A    between atoms: _132  and  _133
REMARK   55  A    between atoms: _132  and  _135
REMARK   56  A    between atoms: _135  and  _136
REMARK   57  A    between atoms: _139  and  _141
REMARK   58  A    between atoms: _141  and  _142
REMARK   59  A    between atoms: _141  and  _144
REMARK   60  A    between atoms: _144  and  _145
REMARK   61  A    between atoms: _148  and  _150
REMARK   62  A    between atoms: _150  and  _151
REMARK   63  A    between atoms: _150  and  _153
REMARK   64  A    between atoms: _153  and  _154
REMARK   65  A    between atoms: _154  and  _155
REMARK   66  A    between atoms: _157  and  _159
REMARK   67  A    between atoms: _159  and  _160
REMARK   68  A    between atoms: _159  and  _162
REMARK   69  A    between atoms: _162  and  _163
REMARK   70  A    between atoms: _168  and  _169
REMARK   71  A    between atoms: _171  and  _173
REMARK   72  A    between atoms: _173  and  _174
REMARK   73  A    between atoms: _173  and  _176
REMARK   74  A    between atoms: _176  and  _177
REMARK   75  A    between atoms: _180  and  _182
REMARK   76  A    between atoms: _182  and  _183
REMARK   77  A    between atoms: _182  and  _185
REMARK   78  A    between atoms: _188  and  _190
REMARK   79  A    between atoms: _190  and  _191
REMARK   80  A    between atoms: _194  and  _196
REMARK   81  A    between atoms: _196  and  _197
REMARK   82  A    between atoms: _196  and  _199
REMARK   83  A    between atoms: _199  and  _200
REMARK   84  A    between atoms: _203  and  _205
REMARK   85  A    between atoms: _205  and  _206
REMARK   86  A    between atoms: _205  and  _208
REMARK   87  A    between atoms: _212  and  _213
REMARK   88  A    between atoms: _218  and  _220
REMARK   89  A    between atoms: _220  and  _221
REMARK   90  A    between atoms: _220  and  _223
REMARK   91  A    between atoms: _223  and  _224
REMARK   92  A    between atoms: _227  and  _229
REMARK   93  A    between atoms: _229  and  _230
REMARK   94  A    between atoms: _229  and  _232
REMARK   95  A    between atoms: _232  and  _233
REMARK   96  A    between atoms: _239  and  _241
REMARK   97  A    between atoms: _241  and  _242
REMARK   98  A    between atoms: _241  and  _244
REMARK   99  A    between atoms: _244  and  _245
REMARK  100  A    between atoms: _248  and  _250
REMARK  101  A    between atoms: _250  and  _251
REMARK  102  A    between atoms: _250  and  _253
REMARK  103  A    between atoms: _256  and  _257
REMARK  104  A    between atoms: _262  and  _264
REMARK  105  A    between atoms: _264  and  _265
REMARK  106  A    between atoms: _264  and  _267
REMARK  107  A    between atoms: _267  and  _268
REMARK  108  A    between atoms: _273  and  _274
REMARK  109  A    between atoms: _276  and  _278
REMARK  110  A    between atoms: _278  and  _279
REMARK  111  A    between atoms: _278  and  _281
REMARK  112  A    between atoms: _281  and  _282
REMARK  113  A    between atoms: _287  and  _288
REMARK  114  A    between atoms: _290  and  _292
REMARK  115  A    between atoms: _292  and  _293
REMARK  116  A    between atoms: _292  and  _295
REMARK  117  A    between atoms: _295  and  _296
REMARK  118  A    between atoms: _299  and  _301
REMARK  119  A    between atoms: _301  and  _302
REMARK  120  A    between atoms: _301  and  _304
REMARK  121  A    between atoms: _304  and  _305
REMARK  122  A    between atoms: _307  and  _309
REMARK  123  A    between atoms: _309  and  _310
REMARK  124  A    between atoms: _309  and  _312
REMARK  125  A    between atoms: _312  and  _313
REMARK  126  A    between atoms: _313  and  _314
REMARK  127  A    between atoms: _314  and  _315
REMARK  128  A    between atoms: _324  and  _326
REMARK  129  A    between atoms: _326  and  _327
REMARK  130  A    between atoms: _329  and  _331
REMARK  131  A    between atoms: _331  and  _332
REMARK  132  A    between atoms: _331  and  _334
REMARK  133  A    between atoms: _337  and  _339
REMARK  134  A    between atoms: _339  and  _340
REMARK  135  A    between atoms: _339  and  _342
REMARK  136  A    between atoms: _342  and  _343
REMARK  137  A    between atoms: _346  and  _348
REMARK  138  A    between atoms: _348  and  _349
REMARK  139  A    between atoms: _351  and  _353
REMARK  140  A    between atoms: _353  and  _354
REMARK  141  A    between atoms: _353  and  _356
REMARK  142  A    between atoms: _356  and  _357
REMARK  143  A    between atoms: _360  and  _362
REMARK  144  A    between atoms: _362  and  _363
REMARK  145  A    between atoms: _362  and  _365
REMARK  146  A    between atoms: _365  and  _366
REMARK  147  A    between atoms: _366  and  _367
REMARK  148  A    between atoms: _372  and  _374
REMARK  149  A    between atoms: _374  and  _375
REMARK  150  A    between atoms: _377  and  _379
REMARK  151  A    between atoms: _379  and  _380
REMARK  152  A    between atoms: _379  and  _382
REMARK  153  A    between atoms: _382  and  _383
REMARK  154  A    between atoms: _389  and  _391
REMARK  155  A    between atoms: _391  and  _392
REMARK  156  A    between atoms: _394  and  _396
REMARK  157  A    between atoms: _396  and  _397
REMARK  158  A    between atoms: _396  and  _399
REMARK  159  A    between atoms: _399  and  _400
REMARK  160  A    between atoms: _403  and  _405
REMARK  161  A    between atoms: _405  and  _406
REMARK  162  A    between atoms: _405  and  _408
REMARK  163  A    between atoms: _408  and  _409
REMARK  164  A    between atoms: _411  and  _413
REMARK  165  A    between atoms: _413  and  _414
REMARK  166  A    between atoms: _413  and  _416
REMARK  167  A    between atoms: _416  and  _417
REMARK  168  A    between atoms: _417  and  _418
REMARK  169  A    between atoms: _423  and  _425
REMARK  170  A    between atoms: _425  and  _426
REMARK  171  A    between atoms: _429  and  _431
REMARK  172  A    between atoms: _431  and  _432
REMARK  173  A    between atoms: _431  and  _434
REMARK  174  A    between atoms: _434  and  _435
REMARK  175  A    between atoms: _438  and  _440
REMARK  176  A    between atoms: _440  and  _441
REMARK  177  A    between atoms: _440  and  _443
REMARK  178  A    between atoms: _443  and  _444
REMARK  179  A    between atoms: _446  and  _448
REMARK  180  A    between atoms: _448  and  _449
REMARK  181  A    between atoms: _451  and  _453
REMARK  182  A    between atoms: _453  and  _454
REMARK  183  A    between atoms: _453  and  _456
REMARK  184  A    between atoms: _456  and  _457
REMARK  185  A    between atoms: _459  and  _461
REMARK  186  A    between atoms: _461  and  _462
REMARK  187  A    between atoms: _465  and  _467
REMARK  188  A    between atoms: _467  and  _468
REMARK  189  A    between atoms: _467  and  _470
REMARK  190  A    between atoms: _470  and  _471
REMARK  191  A    between atoms: _474  and  _476
REMARK  192  A    between atoms: _476  and  _477
REMARK  193  A    between atoms: _476  and  _479
REMARK  194  A    between atoms: _482  and  _484
REMARK  195  A    between atoms: _484  and  _485
REMARK  196  A    between atoms: _488  and  _490
REMARK  197  A    between atoms: _490  and  _491
REMARK  198  A    between atoms: _490  and  _493
REMARK  199  A    between atoms: _497  and  _498
REMARK  200  A    between atoms: _503  and  _505
REMARK  201  A    between atoms: _505  and  _506
REMARK  202  A    between atoms: _505  and  _508
REMARK  203  A    between atoms: _508  and  _509
REMARK  204  A    between atoms: _509  and  _510
REMARK  205  A    between atoms: _515  and  _517
REMARK  206  A    between atoms: _517  and  _518
REMARK  207  A    between atoms: _517  and  _520
REMARK  208  A    between atoms: _520  and  _521
REMARK  209  A    between atoms: _524  and  _526
REMARK  210  A    between atoms: _526  and  _527
REMARK  211  A    between atoms: _526  and  _529
REMARK  212  A    between atoms: _529  and  _530
REMARK  213  A    between atoms: _533  and  _535
REMARK  214  A    between atoms: _535  and  _536
REMARK  215  A    between atoms: _535  and  _538
REMARK  216  A    between atoms: _538  and  _539
REMARK                            x       y       z     vdW  Elec       q    Type
REMARK                         _______ _______ _______ _____ _____    ______ ____
ROOT
ATOM      1  C   SER A   2      44.538  20.883   5.343  0.00  0.00    +0.243 C 
ATOM      2  N   ARG A   3      45.816  20.803   5.704  0.00  0.00    -0.298 N 
ATOM      3  H   ARG A   3      46.089  21.076   6.670  0.00  0.00    +0.150 HD
ATOM      4  O   SER A   2      44.137  20.558   4.225  0.00  0.00    -0.273 OA
ENDROOT
BRANCH   1   5
ATOM      5  CA  SER A   2      43.565  21.399   6.400  0.00  0.00    +0.178 C 
BRANCH   5   8
ATOM      6  C   LEU A   1      44.125  20.158   8.405  0.00  0.00    +0.238 C 
ATOM      7  O   LEU A   1      43.612  19.131   7.964  0.00  0.00    -0.274 OA
ATOM      8  N   SER A   2      44.155  21.298   7.726  0.00  0.00    -0.295 N 
ATOM      9  H   SER A   2      44.608  22.133   8.149  0.00  0.00    +0.150 HD
BRANCH   6  10
ATOM     10  CA  LEU A   1      44.774  20.171   9.779  0.00  0.00    +0.145 C 
BRANCH  10  11
ATOM     11  N   LEU A   1      43.868  19.569  10.753  0.00  0.00    -0.238 NA
ATOM     12  H   LEU A   1      44.076  18.618  11.119  0.00  0.00    +0.142 HD
ENDBRANCH  10  11
BRANCH  10  13
ATOM     13  CB  LEU A   1      46.094  19.397   9.703  0.00  0.00    +0.026 C 
BRANCH  13  14
ATOM     14  CG  LEU A   1      47.173  19.645  10.757  0.00  0.00    +0.002 C 
ATOM     15  CD2 LEU A   1      47.582  21.111  10.746  0.00  0.00    +0.000 C 
ATOM     16  CD1 LEU A   1      48.379  18.756  10.456  0.00  0.00    +0.000 C 
ENDBRANCH  13  14
ENDBRANCH  10  13
ENDBRANCH   6  10
ENDBRANCH   5   8
BRANCH   5  17
ATOM     17  CB  SER A   2      43.209  22.852   6.090  0.00  0.00    +0.166 C 
BRANCH  17  18
ATOM     18  OG  SER A   2      44.381  23.621   5.890  0.00  0.00    -0.380 OA
ATOM     19  H   SER A   2      44.130  24.558   5.691  0.00  0.00    +0.211 HD
ENDBRANCH  17  18
ENDBRANCH   5  17
ENDBRANCH   1   5
BRANCH   2  20
ATOM     20  CA  ARG A   3      46.845  20.341   4.777  0.00  0.00    +0.137 C 
BRANCH  20  21
ATOM     21  C   ARG A   3      48.128  19.950   5.504  0.00  0.00    +0.227 C 
ATOM     22  O   ARG A   3      48.217  20.038   6.729  0.00  0.00    -0.286 OA
ENDBRANCH  20  21
BRANCH  20  23
ATOM     23  CB  ARG A   3      47.174  21.447   3.775  0.00  0.00    +0.031 C 
BRANCH  23  24
ATOM     24  CG  ARG A   3      47.655  22.732   4.442  0.00  0.00    +0.045 C 
BRANCH  24  25
ATOM     25  CD  ARG A   3      48.164  23.746   3.430  0.00  0.00    +0.174 C 
BRANCH  25  26
ATOM     26  NE  ARG A   3      48.530  25.013   4.062  0.00  0.00    -0.265 N 
ATOM     27  CZ  ARG A   3      49.490  25.154   4.973  0.00  0.00    +0.342 C 
ATOM     28  NH2 ARG A   3      49.741  26.349   5.490  0.00  0.00    -0.292 N 
ATOM     29 HH21 ARG A   3      50.491  26.461   6.202  0.00  0.00    +0.255 HD
ATOM     30 HH22 ARG A   3      49.188  27.175   5.184  0.00  0.00    +0.255 HD
ATOM     31  NH1 ARG A   3      50.197  24.103   5.371  0.00  0.00    -0.292 N 
ATOM     32 HH11 ARG A   3      50.946  24.220   6.083  0.00  0.00    +0.255 HD
ATOM     33 HH12 ARG A   3      50.002  23.163   4.971  0.00  0.00    +0.255 HD
ATOM     34  HE  ARG A   3      48.003  25.864   3.780  0.00  0.00    +0.259 HD
ENDBRANCH  25  26
ENDBRANCH  24  25
ENDBRANCH  23  24
ENDBRANCH  20  23
ENDBRANCH   2  20
TORSDOF 14
REMARK  Name = ../refined-set-2016/2cli/2cli_pocket.pdb
REMARK  216 active torsions:
REMARK  status: ('A' for Active; 'I' for Inactive)
REMARK    1  A    between atoms: _1  and  _3
REMARK    2  A    between atoms: _3  and  _4
REMARK    3  A    between atoms: _3  and  _6
REMARK    4  A    between atoms: _10  and  _11
REMARK    5  A    between atoms: _16  and  _18
REMARK    6  A    between atoms: _18  and  _19
REMARK    7  A    between atoms: _18  and  _21
REMARK    8  A    between atoms: _21  and  _22
REMARK    9  A    between atoms: _28  and  _30
REMARK   10  A    between atoms: _30  and  _31
REMARK   11  A    between atoms: _30  and  _33
REMARK   12  A    between atoms: _36  and  _38
REMARK   13  A    between atoms: _38  and  _39
REMARK   14  A    between atoms: _38  and  _41
REMARK   15  A    between atoms: _41  and  _42
REMARK   16  A    between atoms: _45  and  _47
REMARK   17  A    between atoms: _47  and  _48
REMARK   18  A    between atoms: _47  and  _50
REMARK   19  A    between atoms: _50  and  _51
REMARK   20  A    between atoms: _54  and  _56
REMARK   21  A    between atoms: _56  and  _57
REMARK   22  A    between atoms: _56  and  _59
REMARK   23  A    between atoms: _59  and  _60
REMARK   24  A    between atoms: _60  and  _61
REMARK   25  A    between atoms: _64  and  _66
REMARK   26  A    between atoms: _66  and  _67
REMARK   27  A    between atoms: _66  and  _69
REMARK   28  A    between atoms: _69  and  _70
REMARK   29  A    between atoms: _73  and  _75
REMARK   30  A    between atoms: _75  and  _76
REMARK   31  A    between atoms: _78  and  _80
REMARK   32  A    between atoms: _80  and  _81
REMARK   33  A    between atoms: _80  and  _83
REMARK   34  A    between atoms: _83  and  _84
REMARK   35  A    between atoms: _87  and  _89
REMARK   36  A    between atoms: _89  and  _90
REMARK   37  A    between atoms: _93  and  _95
REMARK   38  A    between atoms: _95  and  _96
REMARK   39  A    between atoms: _95  and  _98
REMARK   40  A    between atoms: _98  and  _99
REMARK   41  A    between atoms: _102  and  _104
REMARK   42  A    between atoms: _104  and  _105
REMARK   43  A    between atoms: _107  and  _109
REMARK   44  A    between atoms: _109  and  _110
REMARK   45  A    between atoms: _109  and  _112
REMARK   46  A    between atoms: _112  and  _113
REMARK   47  A    between atoms: _116  and  _118
REMARK   48  A    between atoms: _118  and  _119
REMARK   49  A    between atoms: _118  and  _121
REMARK   50  A    between atoms: _121  and  _122
REMARK   51  A    between atoms: _125  and  _127
REMARK   52  A    between atoms: _127  and  _128
REMARK   53  A    between atoms: _130  and  _132
REMARK   54  A    between atoms: _132  and  _133
REMARK   55  A    between atoms: _132  and  _135
REMARK   56  A    between atoms: _135  and  _136
REMARK   57  A    between atoms: _139  and  _141
REMARK   58  A    between atoms: _141  and  _142
REMARK   59  A    between atoms: _141  and  _144
REMARK   60  A    between atoms: _144  and  _145
REMARK   61  A    between atoms: _148  and  _150
REMARK   62  A    between atoms: _150  and  _151
REMARK   63  A    between atoms: _150  and  _153
REMARK   64  A    between atoms: _153  and  _154
REMARK   65  A    between atoms: _154  and  _155
REMARK   66  A    between atoms: _157  and  _159
REMARK   67  A    between atoms: _159  and  _160
REMARK   68  A    between atoms: _159  and  _162
REMARK   69  A    between atoms: _162  and  _163
REMARK   70  A    between atoms: _168  and  _169
REMARK   71  A    between atoms: _171  and  _173
REMARK   72  A    between atoms: _173  and  _174
REMARK   73  A    between atoms: _173  and  _176
REMARK   74  A    between atoms: _176  and  _177
REMARK   75  A    between atoms: _180  and  _182
REMARK   76  A    between atoms: _182  and  _183
REMARK   77  A    between atoms: _182  and  _185
REMARK   78  A    between atoms: _188  and  _190
REMARK   79  A    between atoms: _190  and  _191
REMARK   80  A    between atoms: _194  and  _196
REMARK   81  A    between atoms: _196  and  _197
REMARK   82  A    between atoms: _196  and  _199
REMARK   83  A    between atoms: _199  and  _200
REMARK   84  A    between atoms: _203  and  _205
REMARK   85  A    between atoms: _205  and  _206
REMARK   86  A    between atoms: _205  and  _208
REMARK   87  A    between atoms: _212  and  _213
REMARK   88  A    between atoms: _218  and  _220
REMARK   89  A    between atoms: _220  and  _221
REMARK   90  A    between atoms: _220  and  _223
REMARK   91  A    between atoms: _223  and  _224
REMARK   92  A    between atoms: _227  and  _229
REMARK   93  A    between atoms: _229  and  _230
REMARK   94  A    between atoms: _229  and  _232
REMARK   95  A    between atoms: _232  and  _233
REMARK   96  A    between atoms: _239  and  _241
REMARK   97  A    between atoms: _241  and  _242
REMARK   98  A    between atoms: _241  and  _244
REMARK   99  A    between atoms: _244  and  _245
REMARK  100  A    between atoms: _248  and  _250
REMARK  101  A    between atoms: _250  and  _251
REMARK  102  A    between atoms: _250  and  _253
REMARK  103  A    between atoms: _256  and  _257
REMARK  104  A    between atoms: _262  and  _264
REMARK  105  A    between atoms: _264  and  _265
REMARK  106  A    between atoms: _264  and  _267
REMARK  107  A    between atoms: _267  and  _268
REMARK  108  A    between atoms: _273  and  _274
REMARK  109  A    between atoms: _276  and  _278
REMARK  110  A    between atoms: _278  and  _279
REMARK  111  A    between atoms: _278  and  _281
REMARK  112  A    between atoms: _281  and  _282
REMARK  113  A    between atoms: _287  and  _288
REMARK  114  A    between atoms: _290  and  _292
REMARK  115  A    between atoms: _292  and  _293
REMARK  116  A    between atoms: _292  and  _295
REMARK  117  A    between atoms: _295  and  _296
REMARK  118  A    between atoms: _299  and  _301
REMARK  119  A    between atoms: _301  and  _302
REMARK  120  A    between atoms: _301  and  _304
REMARK  121  A    between atoms: _304  and  _305
REMARK  122  A    between atoms: _307  and  _309
REMARK  123  A    between atoms: _309  and  _310
REMARK  124  A    between atoms: _309  and  _312
REMARK  125  A    between atoms: _312  and  _313
REMARK  126  A    between atoms: _313  and  _314
REMARK  127  A    between atoms: _314  and  _315
REMARK  128  A    between atoms: _324  and  _326
REMARK  129  A    between atoms: _326  and  _327
REMARK  130  A    between atoms: _329  and  _331
REMARK  131  A    between atoms: _331  and  _332
REMARK  132  A    between atoms: _331  and  _334
REMARK  133  A    between atoms: _337  and  _339
REMARK  134  A    between atoms: _339  and  _340
REMARK  135  A    between atoms: _339  and  _342
REMARK  136  A    between atoms: _342  and  _343
REMARK  137  A    between atoms: _346  and  _348
REMARK  138  A    between atoms: _348  and  _349
REMARK  139  A    between atoms: _351  and  _353
REMARK  140  A    between atoms: _353  and  _354
REMARK  141  A    between atoms: _353  and  _356
REMARK  142  A    between atoms: _356  and  _357
REMARK  143  A    between atoms: _360  and  _362
REMARK  144  A    between atoms: _362  and  _363
REMARK  145  A    between atoms: _362  and  _365
REMARK  146  A    between atoms: _365  and  _366
REMARK  147  A    between atoms: _366  and  _367
REMARK  148  A    between atoms: _372  and  _374
REMARK  149  A    between atoms: _374  and  _375
REMARK  150  A    between atoms: _377  and  _379
REMARK  151  A    between atoms: _379  and  _380
REMARK  152  A    between atoms: _379  and  _382
REMARK  153  A    between atoms: _382  and  _383
REMARK  154  A    between atoms: _389  and  _391
REMARK  155  A    between atoms: _391  and  _392
REMARK  156  A    between atoms: _394  and  _396
REMARK  157  A    between atoms: _396  and  _397
REMARK  158  A    between atoms: _396  and  _399
REMARK  159  A    between atoms: _399  and  _400
REMARK  160  A    between atoms: _403  and  _405
REMARK  161  A    between atoms: _405  and  _406
REMARK  162  A    between atoms: _405  and  _408
REMARK  163  A    between atoms: _408  and  _409
REMARK  164  A    between atoms: _411  and  _413
REMARK  165  A    between atoms: _413  and  _414
REMARK  166  A    between atoms: _413  and  _416
REMARK  167  A    between atoms: _416  and  _417
REMARK  168  A    between atoms: _417  and  _418
REMARK  169  A    between atoms: _423  and  _425
REMARK  170  A    between atoms: _425  and  _426
REMARK  171  A    between atoms: _429  and  _431
REMARK  172  A    between atoms: _431  and  _432
REMARK  173  A    between atoms: _431  and  _434
REMARK  174  A    between atoms: _434  and  _435
REMARK  175  A    between atoms: _438  and  _440
REMARK  176  A    between atoms: _440  and  _441
REMARK  177  A    between atoms: _440  and  _443
REMARK  178  A    between atoms: _443  and  _444
REMARK  179  A    between atoms: _446  and  _448
REMARK  180  A    between atoms: _448  and  _449
REMARK  181  A    between atoms: _451  and  _453
REMARK  182  A    between atoms: _453  and  _454
REMARK  183  A    between atoms: _453  and  _456
REMARK  184  A    between atoms: _456  and  _457
REMARK  185  A    between atoms: _459  and  _461
REMARK  186  A    between atoms: _461  and  _462
REMARK  187  A    between atoms: _465  and  _467
REMARK  188  A    between atoms: _467  and  _468
REMARK  189  A    between atoms: _467  and  _470
REMARK  190  A    between atoms: _470  and  _471
REMARK  191  A    between atoms: _474  and  _476
REMARK  192  A    between atoms: _476  and  _477
REMARK  193  A    between atoms: _476  and  _479
REMARK  194  A    between atoms: _482  and  _484
REMARK  195  A    between atoms: _484  and  _485
REMARK  196  A    between atoms: _488  and  _490
REMARK  197  A    between atoms: _490  and  _491
REMARK  198  A    between atoms: _490  and  _493
REMARK  199  A    between atoms: _497  and  _498
REMARK  200  A    between atoms: _503  and  _505
REMARK  201  A    between atoms: _505  and  _506
REMARK  202  A    between atoms: _505  and  _508
REMARK  203  A    between atoms: _508  and  _509
REMARK  204  A    between atoms: _509  and  _510
REMARK  205  A    between atoms: _515  and  _517
REMARK  206  A    between atoms: _517  and  _518
REMARK  207  A    between atoms: _517  and  _520
REMARK  208  A    between atoms: _520  and  _521
REMARK  209  A    between atoms: _524  and  _526
REMARK  210  A    between atoms: _526  and  _527
REMARK  211  A    between atoms: _526  and  _529
REMARK  212  A    between atoms: _529  and  _530
REMARK  213  A    between atoms: _533  and  _535
REMARK  214  A    between atoms: _535  and  _536
REMARK  215  A    between atoms: _535  and  _538
REMARK  216  A    between atoms: _538  and  _539
REMARK                            x       y       z     vdW  Elec       q    Type
REMARK                         _______ _______ _______ _____ _____    ______ ____
ROOT
ATOM      1  C   VAL A   2      52.795  25.381   8.013  0.00  0.00    +0.241 C 
ATOM      2  N   THR A   3      52.720  26.169   9.082  0.00  0.00    -0.295 N 
ATOM      3  H   THR A   3      53.334  25.973   9.899  0.00  0.00    +0.150 HD
ATOM      4  O   VAL A   2      52.108  25.551   7.007  0.00  0.00    -0.273 OA
ENDROOT
BRANCH   1   5
ATOM      5  CA  VAL A   2      53.795  24.229   8.090  0.00  0.00    +0.148 C 
BRANCH   5   8
ATOM      6  C   GLY A   1      53.502  22.090   6.951  0.00  0.00    +0.240 C 
ATOM      7  O   GLY A   1      53.275  21.502   8.011  0.00  0.00    -0.274 OA
ATOM      8  N   VAL A   2      53.757  23.394   6.890  0.00  0.00    -0.297 N 
ATOM      9  H   VAL A   2      53.934  23.832   5.963  0.00  0.00    +0.150 HD
BRANCH   6  10
ATOM     10  CA  GLY A   1      53.496  21.331   5.634  0.00  0.00    +0.169 C 
BRANCH  10  11
ATOM     11  N   GLY A   1      52.573  20.209   5.645  0.00  0.00    -0.236 NA
ATOM     12  H   GLY A   1      52.894  19.279   5.982  0.00  0.00    +0.142 HD
ENDBRANCH  10  11
ENDBRANCH   6  10
ENDBRANCH   5   8
BRANCH   5  13
ATOM     13  CB  VAL A   2      55.209  24.816   8.320  0.00  0.00    +0.027 C 
ATOM     14  CG2 VAL A   2      56.204  23.688   8.549  0.00  0.00    +0.002 C 
ATOM     15  CG1 VAL A   2      55.629  25.666   7.123  0.00  0.00    +0.002 C 
ENDBRANCH   5  13
ENDBRANCH   1   5
BRANCH   2  16
ATOM     16  CA  THR A   3      51.800  27.302   9.141  0.00  0.00    +0.176 C 
BRANCH  16  17
ATOM     17  C   THR A   3      52.126  28.351   8.087  0.00  0.00    +0.243 C 
ATOM     18  O   THR A   3      53.284  28.521   7.711  0.00  0.00    -0.273 OA
ATOM     19  N   GLY A   4      51.099  29.053   7.616  0.00  0.00    -0.296 N 
ATOM     20  H   GLY A   4      50.139  28.865   7.970  0.00  0.00    +0.150 HD
BRANCH  19  21
ATOM     21  CA  GLY A   4      51.308  30.079   6.611  0.00  0.00    +0.163 C 
BRANCH  21  22
ATOM     22  C   GLY A   4      50.023  30.502   5.924  0.00  0.00    +0.229 C 
ATOM     23  O   GLY A   4      49.230  29.659   5.502  0.00  0.00    -0.286 OA
ENDBRANCH  21  22
ENDBRANCH  19  21
ENDBRANCH  16  17
BRANCH  16  24
ATOM     24  CB  THR A   3      51.844  27.976  10.519  0.00  0.00    +0.137 C 
ATOM     25  CG2 THR A   3      51.633  26.946  11.592  0.00  0.00    +0.034 C 
BRANCH  24  26
ATOM     26  OG1 THR A   3      53.122  28.593  10.720  0.00  0.00    -0.382 OA
ATOM     27  HG1 THR A   3      53.272  29.274  10.018  0.00  0.00    +0.210 HD
ENDBRANCH  24  26
ENDBRANCH  16  24
ENDBRANCH   2  16
TORSDOF 11
REMARK  Name = ../refined-set-2016/2cli/2cli_pocket.pdb
REMARK  216 active torsions:
REMARK  status: ('A' for Active; 'I' for Inactive)
REMARK    1  A    between atoms: _1  and  _3
REMARK    2  A    between atoms: _3  and  _4
REMARK    3  A    between atoms: _3  and  _6
REMARK    4  A    between atoms: _10  and  _11
REMARK    5  A    between atoms: _16  and  _18
REMARK    6  A    between atoms: _18  and  _19
REMARK    7  A    between atoms: _18  and  _21
REMARK    8  A    between atoms: _21  and  _22
REMARK    9  A    between atoms: _28  and  _30
REMARK   10  A    between atoms: _30  and  _31
REMARK   11  A    between atoms: _30  and  _33
REMARK   12  A    between atoms: _36  and  _38
REMARK   13  A    between atoms: _38  and  _39
REMARK   14  A    between atoms: _38  and  _41
REMARK   15  A    between atoms: _41  and  _42
REMARK   16  A    between atoms: _45  and  _47
REMARK   17  A    between atoms: _47  and  _48
REMARK   18  A    between atoms: _47  and  _50
REMARK   19  A    between atoms: _50  and  _51
REMARK   20  A    between atoms: _54  and  _56
REMARK   21  A    between atoms: _56  and  _57
REMARK   22  A    between atoms: _56  and  _59
REMARK   23  A    between atoms: _59  and  _60
REMARK   24  A    between atoms: _60  and  _61
REMARK   25  A    between atoms: _64  and  _66
REMARK   26  A    between atoms: _66  and  _67
REMARK   27  A    between atoms: _66  and  _69
REMARK   28  A    between atoms: _69  and  _70
REMARK   29  A    between atoms: _73  and  _75
REMARK   30  A    between atoms: _75  and  _76
REMARK   31  A    between atoms: _78  and  _80
REMARK   32  A    between atoms: _80  and  _81
REMARK   33  A    between atoms: _80  and  _83
REMARK   34  A    between atoms: _83  and  _84
REMARK   35  A    between atoms: _87  and  _89
REMARK   36  A    between atoms: _89  and  _90
REMARK   37  A    between atoms: _93  and  _95
REMARK   38  A    between atoms: _95  and  _96
REMARK   39  A    between atoms: _95  and  _98
REMARK   40  A    between atoms: _98  and  _99
REMARK   41  A    between atoms: _102  and  _104
REMARK   42  A    between atoms: _104  and  _105
REMARK   43  A    between atoms: _107  and  _109
REMARK   44  A    between atoms: _109  and  _110
REMARK   45  A    between atoms: _109  and  _112
REMARK   46  A    between atoms: _112  and  _113
REMARK   47  A    between atoms: _116  and  _118
REMARK   48  A    between atoms: _118  and  _119
REMARK   49  A    between atoms: _118  and  _121
REMARK   50  A    between atoms: _121  and  _122
REMARK   51  A    between atoms: _125  and  _127
REMARK   52  A    between atoms: _127  and  _128
REMARK   53  A    between atoms: _130  and  _132
REMARK   54  A    between atoms: _132  and  _133
REMARK   55  A    between atoms: _132  and  _135
REMARK   56  A    between atoms: _135  and  _136
REMARK   57  A    between atoms: _139  and  _141
REMARK   58  A    between atoms: _141  and  _142
REMARK   59  A    between atoms: _141  and  _144
REMARK   60  A    between atoms: _144  and  _145
REMARK   61  A    between atoms: _148  and  _150
REMARK   62  A    between atoms: _150  and  _151
REMARK   63  A    between atoms: _150  and  _153
REMARK   64  A    between atoms: _153  and  _154
REMARK   65  A    between atoms: _154  and  _155
REMARK   66  A    between atoms: _157  and  _159
REMARK   67  A    between atoms: _159  and  _160
REMARK   68  A    between atoms: _159  and  _162
REMARK   69  A    between atoms: _162  and  _163
REMARK   70  A    between atoms: _168  and  _169
REMARK   71  A    between atoms: _171  and  _173
REMARK   72  A    between atoms: _173  and  _174
REMARK   73  A    between atoms: _173  and  _176
REMARK   74  A    between atoms: _176  and  _177
REMARK   75  A    between atoms: _180  and  _182
REMARK   76  A    between atoms: _182  and  _183
REMARK   77  A    between atoms: _182  and  _185
REMARK   78  A    between atoms: _188  and  _190
REMARK   79  A    between atoms: _190  and  _191
REMARK   80  A    between atoms: _194  and  _196
REMARK   81  A    between atoms: _196  and  _197
REMARK   82  A    between atoms: _196  and  _199
REMARK   83  A    between atoms: _199  and  _200
REMARK   84  A    between atoms: _203  and  _205
REMARK   85  A    between atoms: _205  and  _206
REMARK   86  A    between atoms: _205  and  _208
REMARK   87  A    between atoms: _212  and  _213
REMARK   88  A    between atoms: _218  and  _220
REMARK   89  A    between atoms: _220  and  _221
REMARK   90  A    between atoms: _220  and  _223
REMARK   91  A    between atoms: _223  and  _224
REMARK   92  A    between atoms: _227  and  _229
REMARK   93  A    between atoms: _229  and  _230
REMARK   94  A    between atoms: _229  and  _232
REMARK   95  A    between atoms: _232  and  _233
REMARK   96  A    between atoms: _239  and  _241
REMARK   97  A    between atoms: _241  and  _242
REMARK   98  A    between atoms: _241  and  _244
REMARK   99  A    between atoms: _244  and  _245
REMARK  100  A    between atoms: _248  and  _250
REMARK  101  A    between atoms: _250  and  _251
REMARK  102  A    between atoms: _250  and  _253
REMARK  103  A    between atoms: _256  and  _257
REMARK  104  A    between atoms: _262  and  _264
REMARK  105  A    between atoms: _264  and  _265
REMARK  106  A    between atoms: _264  and  _267
REMARK  107  A    between atoms: _267  and  _268
REMARK  108  A    between atoms: _273  and  _274
REMARK  109  A    between atoms: _276  and  _278
REMARK  110  A    between atoms: _278  and  _279
REMARK  111  A    between atoms: _278  and  _281
REMARK  112  A    between atoms: _281  and  _282
REMARK  113  A    between atoms: _287  and  _288
REMARK  114  A    between atoms: _290  and  _292
REMARK  115  A    between atoms: _292  and  _293
REMARK  116  A    between atoms: _292  and  _295
REMARK  117  A    between atoms: _295  and  _296
REMARK  118  A    between atoms: _299  and  _301
REMARK  119  A    between atoms: _301  and  _302
REMARK  120  A    between atoms: _301  and  _304
REMARK  121  A    between atoms: _304  and  _305
REMARK  122  A    between atoms: _307  and  _309
REMARK  123  A    between atoms: _309  and  _310
REMARK  124  A    between atoms: _309  and  _312
REMARK  125  A    between atoms: _312  and  _313
REMARK  126  A    between atoms: _313  and  _314
REMARK  127  A    between atoms: _314  and  _315
REMARK  128  A    between atoms: _324  and  _326
REMARK  129  A    between atoms: _326  and  _327
REMARK  130  A    between atoms: _329  and  _331
REMARK  131  A    between atoms: _331  and  _332
REMARK  132  A    between atoms: _331  and  _334
REMARK  133  A    between atoms: _337  and  _339
REMARK  134  A    between atoms: _339  and  _340
REMARK  135  A    between atoms: _339  and  _342
REMARK  136  A    between atoms: _342  and  _343
REMARK  137  A    between atoms: _346  and  _348
REMARK  138  A    between atoms: _348  and  _349
REMARK  139  A    between atoms: _351  and  _353
REMARK  140  A    between atoms: _353  and  _354
REMARK  141  A    between atoms: _353  and  _356
REMARK  142  A    between atoms: _356  and  _357
REMARK  143  A    between atoms: _360  and  _362
REMARK  144  A    between atoms: _362  and  _363
REMARK  145  A    between atoms: _362  and  _365
REMARK  146  A    between atoms: _365  and  _366
REMARK  147  A    between atoms: _366  and  _367
REMARK  148  A    between atoms: _372  and  _374
REMARK  149  A    between atoms: _374  and  _375
REMARK  150  A    between atoms: _377  and  _379
REMARK  151  A    between atoms: _379  and  _380
REMARK  152  A    between atoms: _379  and  _382
REMARK  153  A    between atoms: _382  and  _383
REMARK  154  A    between atoms: _389  and  _391
REMARK  155  A    between atoms: _391  and  _392
REMARK  156  A    between atoms: _394  and  _396
REMARK  157  A    between atoms: _396  and  _397
REMARK  158  A    between atoms: _396  and  _399
REMARK  159  A    between atoms: _399  and  _400
REMARK  160  A    between atoms: _403  and  _405
REMARK  161  A    between atoms: _405  and  _406
REMARK  162  A    between atoms: _405  and  _408
REMARK  163  A    between atoms: _408  and  _409
REMARK  164  A    between atoms: _411  and  _413
REMARK  165  A    between atoms: _413  and  _414
REMARK  166  A    between atoms: _413  and  _416
REMARK  167  A    between atoms: _416  and  _417
REMARK  168  A    between atoms: _417  and  _418
REMARK  169  A    between atoms: _423  and  _425
REMARK  170  A    between atoms: _425  and  _426
REMARK  171  A    between atoms: _429  and  _431
REMARK  172  A    between atoms: _431  and  _432
REMARK  173  A    between atoms: _431  and  _434
REMARK  174  A    between atoms: _434  and  _435
REMARK  175  A    between atoms: _438  and  _440
REMARK  176  A    between atoms: _440  and  _441
REMARK  177  A    between atoms: _440  and  _443
REMARK  178  A    between atoms: _443  and  _444
REMARK  179  A    between atoms: _446  and  _448
REMARK  180  A    between atoms: _448  and  _449
REMARK  181  A    between atoms: _451  and  _453
REMARK  182  A    between atoms: _453  and  _454
REMARK  183  A    between atoms: _453  and  _456
REMARK  184  A    between atoms: _456  and  _457
REMARK  185  A    between atoms: _459  and  _461
REMARK  186  A    between atoms: _461  and  _462
REMARK  187  A    between atoms: _465  and  _467
REMARK  188  A    between atoms: _467  and  _468
REMARK  189  A    between atoms: _467  and  _470
REMARK  190  A    between atoms: _470  and  _471
REMARK  191  A    between atoms: _474  and  _476
REMARK  192  A    between atoms: _476  and  _477
REMARK  193  A    between atoms: _476  and  _479
REMARK  194  A    between atoms: _482  and  _484
REMARK  195  A    between atoms: _484  and  _485
REMARK  196  A    between atoms: _488  and  _490
REMARK  197  A    between atoms: _490  and  _491
REMARK  198  A    between atoms: _490  and  _493
REMARK  199  A    between atoms: _497  and  _498
REMARK  200  A    between atoms: _503  and  _505
REMARK  201  A    between atoms: _505  and  _506
REMARK  202  A    between atoms: _505  and  _508
REMARK  203  A    between atoms: _508  and  _509
REMARK  204  A    between atoms: _509  and  _510
REMARK  205  A    between atoms: _515  and  _517
REMARK  206  A    between atoms: _517  and  _518
REMARK  207  A    between atoms: _517  and  _520
REMARK  208  A    between atoms: _520  and  _521
REMARK  209  A    between atoms: _524  and  _526
REMARK  210  A    between atoms: _526  and  _527
REMARK  211  A    between atoms: _526  and  _529
REMARK  212  A    between atoms: _529  and  _530
REMARK  213  A    between atoms: _533  and  _535
REMARK  214  A    between atoms: _535  and  _536
REMARK  215  A    between atoms: _535  and  _538
REMARK  216  A    between atoms: _538  and  _539
REMARK                            x       y       z     vdW  Elec       q    Type
REMARK                         _______ _______ _______ _____ _____    ______ ____
ROOT
ATOM      1  CA  PHE A   4      46.317  26.042   8.689  0.00  0.00    +0.153 C 
ENDROOT
BRANCH   1   2
ATOM      2  C   PHE A   4      45.699  26.555   7.390  0.00  0.00    +0.241 C 
ATOM      3  N   GLY A   5      46.197  27.693   6.915  0.00  0.00    -0.295 N 
ATOM      4  H   GLY A   5      46.949  28.185   7.438  0.00  0.00    +0.150 HD
ATOM      5  O   PHE A   4      44.789  25.939   6.835  0.00  0.00    -0.273 OA
BRANCH   3   6
ATOM      6  CA  GLY A   5      45.699  28.255   5.671  0.00  0.00    +0.176 C 
BRANCH   6   7
ATOM      7  C   GLY A   5      44.396  29.036   5.729  0.00  0.00    +0.243 C 
ATOM      8  N   ILE A   6      43.784  29.126   6.907  0.00  0.00    -0.297 N 
ATOM      9  H   ILE A   6      44.208  28.661   7.735  0.00  0.00    +0.150 HD
ATOM     10  O   GLY A   5      43.949  29.550   4.704  0.00  0.00    -0.273 OA
BRANCH   8  11
ATOM     11  CA  ILE A   6      42.529  29.863   7.068  0.00  0.00    +0.149 C 
BRANCH  11  12
ATOM     12  C   ILE A   6      42.826  31.359   7.098  0.00  0.00    +0.241 C 
ATOM     13  O   ILE A   6      43.347  31.869   8.092  0.00  0.00    -0.273 OA
ATOM     14  N   SER A   7      42.488  32.069   6.024  0.00  0.00    -0.296 N 
ATOM     15  H   SER A   7      42.028  31.600   5.218  0.00  0.00    +0.150 HD
BRANCH  14  16
ATOM     16  CA  SER A   7      42.760  33.502   5.972  0.00  0.00    +0.166 C 
BRANCH  16  17
ATOM     17  CB  SER A   7      41.646  34.345   5.363  0.00  0.00    +0.229 C 
ATOM     18  OG  SER A   7      41.820  35.545   5.161  0.00  0.00    -0.286 OA
ENDBRANCH  16  17
BRANCH  16  19
ATOM     19  C   SER A   7      44.050  33.755   5.192  0.00  0.00    +0.165 C 
BRANCH  19  20
ATOM     20  O   SER A   7      43.888  33.381   3.835  0.00  0.00    -0.380 OA
ATOM     21  H   SER A   7      43.663  32.418   3.784  0.00  0.00    +0.211 HD
ENDBRANCH  19  20
ENDBRANCH  16  19
ENDBRANCH  14  16
ENDBRANCH  11  12
BRANCH  11  22
ATOM     22  CB  ILE A   6      41.822  29.495   8.394  0.00  0.00    +0.027 C 
ATOM     23  CG2 ILE A   6      40.511  30.261   8.511  0.00  0.00    +0.002 C 
BRANCH  22  24
ATOM     24  CG1 ILE A   6      41.573  27.985   8.465  0.00  0.00    +0.002 C 
ATOM     25  CD1 ILE A   6      40.581  27.464   7.452  0.00  0.00    +0.000 C 
ENDBRANCH  22  24
ENDBRANCH  11  22
ENDBRANCH   8  11
ENDBRANCH   6   7
ENDBRANCH   3   6
ENDBRANCH   1   2
BRANCH   1  27
ATOM     26  C   GLY A   3      44.377  25.141   9.894  0.00  0.00    +0.243 C 
ATOM     27  N   PHE A   4      45.363  26.031   9.798  0.00  0.00    -0.297 N 
ATOM     28  H   PHE A   4      45.459  26.749  10.544  0.00  0.00    +0.150 HD
ATOM     29  O   GLY A   3      44.191  24.248   9.066  0.00  0.00    -0.273 OA
BRANCH  26  30
ATOM     30  CA  GLY A   3      43.466  25.271  11.101  0.00  0.00    +0.176 C 
BRANCH  30  33
ATOM     31  C   GLN A   2      41.131  24.663  11.310  0.00  0.00    +0.241 C 
ATOM     32  O   GLN A   2      40.798  25.829  11.532  0.00  0.00    -0.273 OA
ATOM     33  N   GLY A   3      42.391  24.294  11.088  0.00  0.00    -0.295 N 
ATOM     34  H   GLY A   3      42.608  23.294  10.903  0.00  0.00    +0.150 HD
BRANCH  31  35
ATOM     35  CA  GLN A   2      40.089  23.552  11.271  0.00  0.00    +0.149 C 
BRANCH  35  38
ATOM     36  C   LEU A   1      39.533  23.162  13.596  0.00  0.00    +0.238 C 
ATOM     37  O   LEU A   1      40.606  22.592  13.795  0.00  0.00    -0.274 OA
ATOM     38  N   GLN A   2      39.187  23.650  12.410  0.00  0.00    -0.297 N 
ATOM     39  H   GLN A   2      38.260  24.108  12.293  0.00  0.00    +0.150 HD
BRANCH  36  40
ATOM     40  CA  LEU A   1      38.519  23.314  14.722  0.00  0.00    +0.145 C 
BRANCH  40  41
ATOM     41  N   LEU A   1      38.218  21.958  15.159  0.00  0.00    -0.238 NA
ATOM     42  H   LEU A   1      38.993  21.361  15.513  0.00  0.00    +0.142 HD
ENDBRANCH  40  41
BRANCH  40  43
ATOM     43  CB  LEU A   1      39.128  24.142  15.853  0.00  0.00    +0.026 C 
BRANCH  43  44
ATOM     44  CG  LEU A   1      38.223  24.515  17.028  0.00  0.00    +0.002 C 
ATOM     45  CD2 LEU A   1      39.002  25.398  17.984  0.00  0.00    +0.000 C 
ATOM     46  CD1 LEU A   1      36.980  25.245  16.533  0.00  0.00    +0.000 C 
ENDBRANCH  43  44
ENDBRANCH  40  43
ENDBRANCH  36  40
ENDBRANCH  35  38
BRANCH  35  47
ATOM     47  CB  GLN A   2      39.304  23.636   9.962  0.00  0.00    +0.039 C 
BRANCH  47  48
ATOM     48  CG  GLN A   2      40.118  23.239   8.739  0.00  0.00    +0.087 C 
BRANCH  48  49
ATOM     49  CD  GLN A   2      39.343  23.400   7.450  0.00  0.00    +0.219 C 
ATOM     50  OE1 GLN A   2      38.185  22.995   7.355  0.00  0.00    -0.275 OA
ATOM     51  NE2 GLN A   2      39.982  23.988   6.446  0.00  0.00    -0.329 N 
ATOM     52 HE21 GLN A   2      40.961  24.314   6.573  0.00  0.00    +0.145 HD
ATOM     53 HE22 GLN A   2      39.503  24.122   5.532  0.00  0.00    +0.145 HD
ENDBRANCH  48  49
ENDBRANCH  47  48
ENDBRANCH  35  47
ENDBRANCH  31  35
ENDBRANCH  30  33
ENDBRANCH  26  30
ENDBRANCH   1  27
BRANCH   1  54
ATOM     54  CB  PHE A   4      46.902  24.641   8.456  0.00  0.00    +0.055 C 
BRANCH  54  55
ATOM     55  CG  PHE A   4      48.081  24.312   9.336  0.00  0.00    -0.020 A 
ATOM     56  CD2 PHE A   4      48.020  24.511  10.713  0.00  0.00    -0.004 A 
ATOM     57  CE2 PHE A   4      49.101  24.187  11.531  0.00  0.00    -0.000 A 
ATOM     58  CZ  PHE A   4      50.264  23.658  10.975  0.00  0.00    -0.000 A 
ATOM     59  CE1 PHE A   4      50.340  23.454   9.600  0.00  0.00    -0.000 A 
ATOM     60  CD1 PHE A   4      49.249  23.783   8.788  0.00  0.00    -0.004 A 
ENDBRANCH  54  55
ENDBRANCH   1  54
TORSDOF 25
REMARK  Name = ../refined-set-2016/2cli/2cli_pocket.pdb
REMARK  216 active torsions:
REMARK  status: ('A' for Active; 'I' for Inactive)
REMARK    1  A    between atoms: _1  and  _3
REMARK    2  A    between atoms: _3  and  _4
REMARK    3  A    between atoms: _3  and  _6
REMARK    4  A    between atoms: _10  and  _11
REMARK    5  A    between atoms: _16  and  _18
REMARK    6  A    between atoms: _18  and  _19
REMARK    7  A    between atoms: _18  and  _21
REMARK    8  A    between atoms: _21  and  _22
REMARK    9  A    between atoms: _28  and  _30
REMARK   10  A    between atoms: _30  and  _31
REMARK   11  A    between atoms: _30  and  _33
REMARK   12  A    between atoms: _36  and  _38
REMARK   13  A    between atoms: _38  and  _39
REMARK   14  A    between atoms: _38  and  _41
REMARK   15  A    between atoms: _41  and  _42
REMARK   16  A    between atoms: _45  and  _47
REMARK   17  A    between atoms: _47  and  _48
REMARK   18  A    between atoms: _47  and  _50
REMARK   19  A    between atoms: _50  and  _51
REMARK   20  A    between atoms: _54  and  _56
REMARK   21  A    between atoms: _56  and  _57
REMARK   22  A    between atoms: _56  and  _59
REMARK   23  A    between atoms: _59  and  _60
REMARK   24  A    between atoms: _60  and  _61
REMARK   25  A    between atoms: _64  and  _66
REMARK   26  A    between atoms: _66  and  _67
REMARK   27  A    between atoms: _66  and  _69
REMARK   28  A    between atoms: _69  and  _70
REMARK   29  A    between atoms: _73  and  _75
REMARK   30  A    between atoms: _75  and  _76
REMARK   31  A    between atoms: _78  and  _80
REMARK   32  A    between atoms: _80  and  _81
REMARK   33  A    between atoms: _80  and  _83
REMARK   34  A    between atoms: _83  and  _84
REMARK   35  A    between atoms: _87  and  _89
REMARK   36  A    between atoms: _89  and  _90
REMARK   37  A    between atoms: _93  and  _95
REMARK   38  A    between atoms: _95  and  _96
REMARK   39  A    between atoms: _95  and  _98
REMARK   40  A    between atoms: _98  and  _99
REMARK   41  A    between atoms: _102  and  _104
REMARK   42  A    between atoms: _104  and  _105
REMARK   43  A    between atoms: _107  and  _109
REMARK   44  A    between atoms: _109  and  _110
REMARK   45  A    between atoms: _109  and  _112
REMARK   46  A    between atoms: _112  and  _113
REMARK   47  A    between atoms: _116  and  _118
REMARK   48  A    between atoms: _118  and  _119
REMARK   49  A    between atoms: _118  and  _121
REMARK   50  A    between atoms: _121  and  _122
REMARK   51  A    between atoms: _125  and  _127
REMARK   52  A    between atoms: _127  and  _128
REMARK   53  A    between atoms: _130  and  _132
REMARK   54  A    between atoms: _132  and  _133
REMARK   55  A    between atoms: _132  and  _135
REMARK   56  A    between atoms: _135  and  _136
REMARK   57  A    between atoms: _139  and  _141
REMARK   58  A    between atoms: _141  and  _142
REMARK   59  A    between atoms: _141  and  _144
REMARK   60  A    between atoms: _144  and  _145
REMARK   61  A    between atoms: _148  and  _150
REMARK   62  A    between atoms: _150  and  _151
REMARK   63  A    between atoms: _150  and  _153
REMARK   64  A    between atoms: _153  and  _154
REMARK   65  A    between atoms: _154  and  _155
REMARK   66  A    between atoms: _157  and  _159
REMARK   67  A    between atoms: _159  and  _160
REMARK   68  A    between atoms: _159  and  _162
REMARK   69  A    between atoms: _162  and  _163
REMARK   70  A    between atoms: _168  and  _169
REMARK   71  A    between atoms: _171  and  _173
REMARK   72  A    between atoms: _173  and  _174
REMARK   73  A    between atoms: _173  and  _176
REMARK   74  A    between atoms: _176  and  _177
REMARK   75  A    between atoms: _180  and  _182
REMARK   76  A    between atoms: _182  and  _183
REMARK   77  A    between atoms: _182  and  _185
REMARK   78  A    between atoms: _188  and  _190
REMARK   79  A    between atoms: _190  and  _191
REMARK   80  A    between atoms: _194  and  _196
REMARK   81  A    between atoms: _196  and  _197
REMARK   82  A    between atoms: _196  and  _199
REMARK   83  A    between atoms: _199  and  _200
REMARK   84  A    between atoms: _203  and  _205
REMARK   85  A    between atoms: _205  and  _206
REMARK   86  A    between atoms: _205  and  _208
REMARK   87  A    between atoms: _212  and  _213
REMARK   88  A    between atoms: _218  and  _220
REMARK   89  A    between atoms: _220  and  _221
REMARK   90  A    between atoms: _220  and  _223
REMARK   91  A    between atoms: _223  and  _224
REMARK   92  A    between atoms: _227  and  _229
REMARK   93  A    between atoms: _229  and  _230
REMARK   94  A    between atoms: _229  and  _232
REMARK   95  A    between atoms: _232  and  _233
REMARK   96  A    between atoms: _239  and  _241
REMARK   97  A    between atoms: _241  and  _242
REMARK   98  A    between atoms: _241  and  _244
REMARK   99  A    between atoms: _244  and  _245
REMARK  100  A    between atoms: _248  and  _250
REMARK  101  A    between atoms: _250  and  _251
REMARK  102  A    between atoms: _250  and  _253
REMARK  103  A    between atoms: _256  and  _257
REMARK  104  A    between atoms: _262  and  _264
REMARK  105  A    between atoms: _264  and  _265
REMARK  106  A    between atoms: _264  and  _267
REMARK  107  A    between atoms: _267  and  _268
REMARK  108  A    between atoms: _273  and  _274
REMARK  109  A    between atoms: _276  and  _278
REMARK  110  A    between atoms: _278  and  _279
REMARK  111  A    between atoms: _278  and  _281
REMARK  112  A    between atoms: _281  and  _282
REMARK  113  A    between atoms: _287  and  _288
REMARK  114  A    between atoms: _290  and  _292
REMARK  115  A    between atoms: _292  and  _293
REMARK  116  A    between atoms: _292  and  _295
REMARK  117  A    between atoms: _295  and  _296
REMARK  118  A    between atoms: _299  and  _301
REMARK  119  A    between atoms: _301  and  _302
REMARK  120  A    between atoms: _301  and  _304
REMARK  121  A    between atoms: _304  and  _305
REMARK  122  A    between atoms: _307  and  _309
REMARK  123  A    between atoms: _309  and  _310
REMARK  124  A    between atoms: _309  and  _312
REMARK  125  A    between atoms: _312  and  _313
REMARK  126  A    between atoms: _313  and  _314
REMARK  127  A    between atoms: _314  and  _315
REMARK  128  A    between atoms: _324  and  _326
REMARK  129  A    between atoms: _326  and  _327
REMARK  130  A    between atoms: _329  and  _331
REMARK  131  A    between atoms: _331  and  _332
REMARK  132  A    between atoms: _331  and  _334
REMARK  133  A    between atoms: _337  and  _339
REMARK  134  A    between atoms: _339  and  _340
REMARK  135  A    between atoms: _339  and  _342
REMARK  136  A    between atoms: _342  and  _343
REMARK  137  A    between atoms: _346  and  _348
REMARK  138  A    between atoms: _348  and  _349
REMARK  139  A    between atoms: _351  and  _353
REMARK  140  A    between atoms: _353  and  _354
REMARK  141  A    between atoms: _353  and  _356
REMARK  142  A    between atoms: _356  and  _357
REMARK  143  A    between atoms: _360  and  _362
REMARK  144  A    between atoms: _362  and  _363
REMARK  145  A    between atoms: _362  and  _365
REMARK  146  A    between atoms: _365  and  _366
REMARK  147  A    between atoms: _366  and  _367
REMARK  148  A    between atoms: _372  and  _374
REMARK  149  A    between atoms: _374  and  _375
REMARK  150  A    between atoms: _377  and  _379
REMARK  151  A    between atoms: _379  and  _380
REMARK  152  A    between atoms: _379  and  _382
REMARK  153  A    between atoms: _382  and  _383
REMARK  154  A    between atoms: _389  and  _391
REMARK  155  A    between atoms: _391  and  _392
REMARK  156  A    between atoms: _394  and  _396
REMARK  157  A    between atoms: _396  and  _397
REMARK  158  A    between atoms: _396  and  _399
REMARK  159  A    between atoms: _399  and  _400
REMARK  160  A    between atoms: _403  and  _405
REMARK  161  A    between atoms: _405  and  _406
REMARK  162  A    between atoms: _405  and  _408
REMARK  163  A    between atoms: _408  and  _409
REMARK  164  A    between atoms: _411  and  _413
REMARK  165  A    between atoms: _413  and  _414
REMARK  166  A    between atoms: _413  and  _416
REMARK  167  A    between atoms: _416  and  _417
REMARK  168  A    between atoms: _417  and  _418
REMARK  169  A    between atoms: _423  and  _425
REMARK  170  A    between atoms: _425  and  _426
REMARK  171  A    between atoms: _429  and  _431
REMARK  172  A    between atoms: _431  and  _432
REMARK  173  A    between atoms: _431  and  _434
REMARK  174  A    between atoms: _434  and  _435
REMARK  175  A    between atoms: _438  and  _440
REMARK  176  A    between atoms: _440  and  _441
REMARK  177  A    between atoms: _440  and  _443
REMARK  178  A    between atoms: _443  and  _444
REMARK  179  A    between atoms: _446  and  _448
REMARK  180  A    between atoms: _448  and  _449
REMARK  181  A    between atoms: _451  and  _453
REMARK  182  A    between atoms: _453  and  _454
REMARK  183  A    between atoms: _453  and  _456
REMARK  184  A    between atoms: _456  and  _457
REMARK  185  A    between atoms: _459  and  _461
REMARK  186  A    between atoms: _461  and  _462
REMARK  187  A    between atoms: _465  and  _467
REMARK  188  A    between atoms: _467  and  _468
REMARK  189  A    between atoms: _467  and  _470
REMARK  190  A    between atoms: _470  and  _471
REMARK  191  A    between atoms: _474  and  _476
REMARK  192  A    between atoms: _476  and  _477
REMARK  193  A    between atoms: _476  and  _479
REMARK  194  A    between atoms: _482  and  _484
REMARK  195  A    between atoms: _484  and  _485
REMARK  196  A    between atoms: _488  and  _490
REMARK  197  A    between atoms: _490  and  _491
REMARK  198  A    between atoms: _490  and  _493
REMARK  199  A    between atoms: _497  and  _498
REMARK  200  A    between atoms: _503  and  _505
REMARK  201  A    between atoms: _505  and  _506
REMARK  202  A    between atoms: _505  and  _508
REMARK  203  A    between atoms: _508  and  _509
REMARK  204  A    between atoms: _509  and  _510
REMARK  205  A    between atoms: _515  and  _517
REMARK  206  A    between atoms: _517  and  _518
REMARK  207  A    between atoms: _517  and  _520
REMARK  208  A    between atoms: _520  and  _521
REMARK  209  A    between atoms: _524  and  _526
REMARK  210  A    between atoms: _526  and  _527
REMARK  211  A    between atoms: _526  and  _529
REMARK  212  A    between atoms: _529  and  _530
REMARK  213  A    between atoms: _533  and  _535
REMARK  214  A    between atoms: _535  and  _536
REMARK  215  A    between atoms: _535  and  _538
REMARK  216  A    between atoms: _538  and  _539
REMARK                            x       y       z     vdW  Elec       q    Type
REMARK                         _______ _______ _______ _____ _____    ______ ____
ROOT
ATOM      1  CB  GLN A   1      38.551  29.770   4.619  0.00  0.00    +0.035 C 
ENDROOT
BRANCH   1   2
ATOM      2  CA  GLN A   1      37.039  29.596   4.461  0.00  0.00    +0.134 C 
BRANCH   2   3
ATOM      3  N   GLN A   1      36.434  30.817   3.944  0.00  0.00    -0.239 NA
ATOM      4  H   GLN A   1      36.986  31.699   3.934  0.00  0.00    +0.142 HD
ENDBRANCH   2   3
BRANCH   2   5
ATOM      5  C   GLN A   1      36.416  29.230   5.800  0.00  0.00    +0.224 C 
ATOM      6  O   GLN A   1      36.275  28.053   6.127  0.00  0.00    -0.287 OA
ENDBRANCH   2   5
ENDBRANCH   1   2
BRANCH   1   7
ATOM      7  CG  GLN A   1      39.329  29.671   3.316  0.00  0.00    +0.087 C 
BRANCH   7   8
ATOM      8  CD  GLN A   1      40.811  29.930   3.508  0.00  0.00    +0.219 C 
ATOM      9  OE1 GLN A   1      41.225  31.059   3.774  0.00  0.00    -0.275 OA
ATOM     10  NE2 GLN A   1      41.618  28.880   3.383  0.00  0.00    -0.329 N 
ATOM     11 HE21 GLN A   1      42.644  28.994   3.511  0.00  0.00    +0.145 HD
ATOM     12 HE22 GLN A   1      41.223  27.945   3.157  0.00  0.00    +0.145 HD
ENDBRANCH   7   8
ENDBRANCH   1   7
TORSDOF 5
REMARK  Name = ../refined-set-2016/2cli/2cli_pocket.pdb
REMARK  216 active torsions:
REMARK  status: ('A' for Active; 'I' for Inactive)
REMARK    1  A    between atoms: _1  and  _3
REMARK    2  A    between atoms: _3  and  _4
REMARK    3  A    between atoms: _3  and  _6
REMARK    4  A    between atoms: _10  and  _11
REMARK    5  A    between atoms: _16  and  _18
REMARK    6  A    between atoms: _18  and  _19
REMARK    7  A    between atoms: _18  and  _21
REMARK    8  A    between atoms: _21  and  _22
REMARK    9  A    between atoms: _28  and  _30
REMARK   10  A    between atoms: _30  and  _31
REMARK   11  A    between atoms: _30  and  _33
REMARK   12  A    between atoms: _36  and  _38
REMARK   13  A    between atoms: _38  and  _39
REMARK   14  A    between atoms: _38  and  _41
REMARK   15  A    between atoms: _41  and  _42
REMARK   16  A    between atoms: _45  and  _47
REMARK   17  A    between atoms: _47  and  _48
REMARK   18  A    between atoms: _47  and  _50
REMARK   19  A    between atoms: _50  and  _51
REMARK   20  A    between atoms: _54  and  _56
REMARK   21  A    between atoms: _56  and  _57
REMARK   22  A    between atoms: _56  and  _59
REMARK   23  A    between atoms: _59  and  _60
REMARK   24  A    between atoms: _60  and  _61
REMARK   25  A    between atoms: _64  and  _66
REMARK   26  A    between atoms: _66  and  _67
REMARK   27  A    between atoms: _66  and  _69
REMARK   28  A    between atoms: _69  and  _70
REMARK   29  A    between atoms: _73  and  _75
REMARK   30  A    between atoms: _75  and  _76
REMARK   31  A    between atoms: _78  and  _80
REMARK   32  A    between atoms: _80  and  _81
REMARK   33  A    between atoms: _80  and  _83
REMARK   34  A    between atoms: _83  and  _84
REMARK   35  A    between atoms: _87  and  _89
REMARK   36  A    between atoms: _89  and  _90
REMARK   37  A    between atoms: _93  and  _95
REMARK   38  A    between atoms: _95  and  _96
REMARK   39  A    between atoms: _95  and  _98
REMARK   40  A    between atoms: _98  and  _99
REMARK   41  A    between atoms: _102  and  _104
REMARK   42  A    between atoms: _104  and  _105
REMARK   43  A    between atoms: _107  and  _109
REMARK   44  A    between atoms: _109  and  _110
REMARK   45  A    between atoms: _109  and  _112
REMARK   46  A    between atoms: _112  and  _113
REMARK   47  A    between atoms: _116  and  _118
REMARK   48  A    between atoms: _118  and  _119
REMARK   49  A    between atoms: _118  and  _121
REMARK   50  A    between atoms: _121  and  _122
REMARK   51  A    between atoms: _125  and  _127
REMARK   52  A    between atoms: _127  and  _128
REMARK   53  A    between atoms: _130  and  _132
REMARK   54  A    between atoms: _132  and  _133
REMARK   55  A    between atoms: _132  and  _135
REMARK   56  A    between atoms: _135  and  _136
REMARK   57  A    between atoms: _139  and  _141
REMARK   58  A    between atoms: _141  and  _142
REMARK   59  A    between atoms: _141  and  _144
REMARK   60  A    between atoms: _144  and  _145
REMARK   61  A    between atoms: _148  and  _150
REMARK   62  A    between atoms: _150  and  _151
REMARK   63  A    between atoms: _150  and  _153
REMARK   64  A    between atoms: _153  and  _154
REMARK   65  A    between atoms: _154  and  _155
REMARK   66  A    between atoms: _157  and  _159
REMARK   67  A    between atoms: _159  and  _160
REMARK   68  A    between atoms: _159  and  _162
REMARK   69  A    between atoms: _162  and  _163
REMARK   70  A    between atoms: _168  and  _169
REMARK   71  A    between atoms: _171  and  _173
REMARK   72  A    between atoms: _173  and  _174
REMARK   73  A    between atoms: _173  and  _176
REMARK   74  A    between atoms: _176  and  _177
REMARK   75  A    between atoms: _180  and  _182
REMARK   76  A    between atoms: _182  and  _183
REMARK   77  A    between atoms: _182  and  _185
REMARK   78  A    between atoms: _188  and  _190
REMARK   79  A    between atoms: _190  and  _191
REMARK   80  A    between atoms: _194  and  _196
REMARK   81  A    between atoms: _196  and  _197
REMARK   82  A    between atoms: _196  and  _199
REMARK   83  A    between atoms: _199  and  _200
REMARK   84  A    between atoms: _203  and  _205
REMARK   85  A    between atoms: _205  and  _206
REMARK   86  A    between atoms: _205  and  _208
REMARK   87  A    between atoms: _212  and  _213
REMARK   88  A    between atoms: _218  and  _220
REMARK   89  A    between atoms: _220  and  _221
REMARK   90  A    between atoms: _220  and  _223
REMARK   91  A    between atoms: _223  and  _224
REMARK   92  A    between atoms: _227  and  _229
REMARK   93  A    between atoms: _229  and  _230
REMARK   94  A    between atoms: _229  and  _232
REMARK   95  A    between atoms: _232  and  _233
REMARK   96  A    between atoms: _239  and  _241
REMARK   97  A    between atoms: _241  and  _242
REMARK   98  A    between atoms: _241  and  _244
REMARK   99  A    between atoms: _244  and  _245
REMARK  100  A    between atoms: _248  and  _250
REMARK  101  A    between atoms: _250  and  _251
REMARK  102  A    between atoms: _250  and  _253
REMARK  103  A    between atoms: _256  and  _257
REMARK  104  A    between atoms: _262  and  _264
REMARK  105  A    between atoms: _264  and  _265
REMARK  106  A    between atoms: _264  and  _267
REMARK  107  A    between atoms: _267  and  _268
REMARK  108  A    between atoms: _273  and  _274
REMARK  109  A    between atoms: _276  and  _278
REMARK  110  A    between atoms: _278  and  _279
REMARK  111  A    between atoms: _278  and  _281
REMARK  112  A    between atoms: _281  and  _282
REMARK  113  A    between atoms: _287  and  _288
REMARK  114  A    between atoms: _290  and  _292
REMARK  115  A    between atoms: _292  and  _293
REMARK  116  A    between atoms: _292  and  _295
REMARK  117  A    between atoms: _295  and  _296
REMARK  118  A    between atoms: _299  and  _301
REMARK  119  A    between atoms: _301  and  _302
REMARK  120  A    between atoms: _301  and  _304
REMARK  121  A    between atoms: _304  and  _305
REMARK  122  A    between atoms: _307  and  _309
REMARK  123  A    between atoms: _309  and  _310
REMARK  124  A    between atoms: _309  and  _312
REMARK  125  A    between atoms: _312  and  _313
REMARK  126  A    between atoms: _313  and  _314
REMARK  127  A    between atoms: _314  and  _315
REMARK  128  A    between atoms: _324  and  _326
REMARK  129  A    between atoms: _326  and  _327
REMARK  130  A    between atoms: _329  and  _331
REMARK  131  A    between atoms: _331  and  _332
REMARK  132  A    between atoms: _331  and  _334
REMARK  133  A    between atoms: _337  and  _339
REMARK  134  A    between atoms: _339  and  _340
REMARK  135  A    between atoms: _339  and  _342
REMARK  136  A    between atoms: _342  and  _343
REMARK  137  A    between atoms: _346  and  _348
REMARK  138  A    between atoms: _348  and  _349
REMARK  139  A    between atoms: _351  and  _353
REMARK  140  A    between atoms: _353  and  _354
REMARK  141  A    between atoms: _353  and  _356
REMARK  142  A    between atoms: _356  and  _357
REMARK  143  A    between atoms: _360  and  _362
REMARK  144  A    between atoms: _362  and  _363
REMARK  145  A    between atoms: _362  and  _365
REMARK  146  A    between atoms: _365  and  _366
REMARK  147  A    between atoms: _366  and  _367
REMARK  148  A    between atoms: _372  and  _374
REMARK  149  A    between atoms: _374  and  _375
REMARK  150  A    between atoms: _377  and  _379
REMARK  151  A    between atoms: _379  and  _380
REMARK  152  A    between atoms: _379  and  _382
REMARK  153  A    between atoms: _382  and  _383
REMARK  154  A    between atoms: _389  and  _391
REMARK  155  A    between atoms: _391  and  _392
REMARK  156  A    between atoms: _394  and  _396
REMARK  157  A    between atoms: _396  and  _397
REMARK  158  A    between atoms: _396  and  _399
REMARK  159  A    between atoms: _399  and  _400
REMARK  160  A    between atoms: _403  and  _405
REMARK  161  A    between atoms: _405  and  _406
REMARK  162  A    between atoms: _405  and  _408
REMARK  163  A    between atoms: _408  and  _409
REMARK  164  A    between atoms: _411  and  _413
REMARK  165  A    between atoms: _413  and  _414
REMARK  166  A    between atoms: _413  and  _416
REMARK  167  A    between atoms: _416  and  _417
REMARK  168  A    between atoms: _417  and  _418
REMARK  169  A    between atoms: _423  and  _425
REMARK  170  A    between atoms: _425  and  _426
REMARK  171  A    between atoms: _429  and  _431
REMARK  172  A    between atoms: _431  and  _432
REMARK  173  A    between atoms: _431  and  _434
REMARK  174  A    between atoms: _434  and  _435
REMARK  175  A    between atoms: _438  and  _440
REMARK  176  A    between atoms: _440  and  _441
REMARK  177  A    between atoms: _440  and  _443
REMARK  178  A    between atoms: _443  and  _444
REMARK  179  A    between atoms: _446  and  _448
REMARK  180  A    between atoms: _448  and  _449
REMARK  181  A    between atoms: _451  and  _453
REMARK  182  A    between atoms: _453  and  _454
REMARK  183  A    between atoms: _453  and  _456
REMARK  184  A    between atoms: _456  and  _457
REMARK  185  A    between atoms: _459  and  _461
REMARK  186  A    between atoms: _461  and  _462
REMARK  187  A    between atoms: _465  and  _467
REMARK  188  A    between atoms: _467  and  _468
REMARK  189  A    between atoms: _467  and  _470
REMARK  190  A    between atoms: _470  and  _471
REMARK  191  A    between atoms: _474  and  _476
REMARK  192  A    between atoms: _476  and  _477
REMARK  193  A    between atoms: _476  and  _479
REMARK  194  A    between atoms: _482  and  _484
REMARK  195  A    between atoms: _484  and  _485
REMARK  196  A    between atoms: _488  and  _490
REMARK  197  A    between atoms: _490  and  _491
REMARK  198  A    between atoms: _490  and  _493
REMARK  199  A    between atoms: _497  and  _498
REMARK  200  A    between atoms: _503  and  _505
REMARK  201  A    between atoms: _505  and  _506
REMARK  202  A    between atoms: _505  and  _508
REMARK  203  A    between atoms: _508  and  _509
REMARK  204  A    between atoms: _509  and  _510
REMARK  205  A    between atoms: _515  and  _517
REMARK  206  A    between atoms: _517  and  _518
REMARK  207  A    between atoms: _517  and  _520
REMARK  208  A    between atoms: _520  and  _521
REMARK  209  A    between atoms: _524  and  _526
REMARK  210  A    between atoms: _526  and  _527
REMARK  211  A    between atoms: _526  and  _529
REMARK  212  A    between atoms: _529  and  _530
REMARK  213  A    between atoms: _533  and  _535
REMARK  214  A    between atoms: _535  and  _536
REMARK  215  A    between atoms: _535  and  _538
REMARK  216  A    between atoms: _538  and  _539
REMARK                            x       y       z     vdW  Elec       q    Type
REMARK                         _______ _______ _______ _____ _____    ______ ____
ROOT
ATOM      1  CA  SER A   5      49.476  33.788   9.890  0.00  0.00    +0.178 C 
ENDROOT
BRANCH   1   4
ATOM      2  C   GLY A   4      48.021  33.523  11.822  0.00  0.00    +0.243 C 
ATOM      3  O   GLY A   4      48.061  34.728  12.070  0.00  0.00    -0.273 OA
ATOM      4  N   SER A   5      48.665  32.979  10.795  0.00  0.00    -0.295 N 
ATOM      5  H   SER A   5      48.590  31.955  10.632  0.00  0.00    +0.150 HD
BRANCH   2   6
ATOM      6  CA  GLY A   4      47.218  32.585  12.707  0.00  0.00    +0.176 C 
BRANCH   6   9
ATOM      7  C   SER A   3      44.827  32.240  12.571  0.00  0.00    +0.243 C 
ATOM      8  O   SER A   3      44.623  32.985  13.531  0.00  0.00    -0.273 OA
ATOM      9  N   GLY A   4      46.042  31.993  12.088  0.00  0.00    -0.295 N 
ATOM     10  H   GLY A   4      46.152  31.372  11.261  0.00  0.00    +0.150 HD
BRANCH   7  11
ATOM     11  CA  SER A   3      43.662  31.559  11.860  0.00  0.00    +0.178 C 
BRANCH  11  13
ATOM     12  C   ILE A   2      42.476  29.534  12.523  0.00  0.00    +0.241 C 
ATOM     13  N   SER A   3      42.885  30.765  12.812  0.00  0.00    -0.295 N 
ATOM     14  H   SER A   3      42.647  31.174  13.738  0.00  0.00    +0.150 HD
ATOM     15  O   ILE A   2      42.712  28.988  11.447  0.00  0.00    -0.273 OA
BRANCH  12  16
ATOM     16  CA  ILE A   2      41.679  28.808  13.604  0.00  0.00    +0.148 C 
BRANCH  16  19
ATOM     17  C   ALA A   1      39.290  28.444  13.193  0.00  0.00    +0.238 C 
ATOM     18  O   ALA A   1      38.946  29.362  13.942  0.00  0.00    -0.274 OA
ATOM     19  N   ILE A   2      40.560  28.109  12.980  0.00  0.00    -0.297 N 
ATOM     20  H   ILE A   2      40.764  27.314  12.341  0.00  0.00    +0.150 HD
BRANCH  17  21
ATOM     21  CA  ALA A   1      38.254  27.614  12.442  0.00  0.00    +0.145 C 
ATOM     22  CB  ALA A   1      38.000  28.224  11.069  0.00  0.00    +0.028 C 
BRANCH  21  23
ATOM     23  N   ALA A   1      37.000  27.507  13.174  0.00  0.00    -0.238 NA
ATOM     24  H   ALA A   1      36.638  28.338  13.683  0.00  0.00    +0.142 HD
ENDBRANCH  21  23
ENDBRANCH  17  21
ENDBRANCH  16  19
BRANCH  16  25
ATOM     25  CB  ILE A   2      42.625  27.818  14.330  0.00  0.00    +0.027 C 
ATOM     26  CG2 ILE A   2      43.902  28.530  14.774  0.00  0.00    +0.002 C 
BRANCH  25  27
ATOM     27  CG1 ILE A   2      41.912  27.210  15.538  0.00  0.00    +0.002 C 
ATOM     28  CD1 ILE A   2      42.664  26.042  16.160  0.00  0.00    +0.000 C 
ENDBRANCH  25  27
ENDBRANCH  16  25
ENDBRANCH  12  16
ENDBRANCH  11  13
BRANCH  11  29
ATOM     29  CB  SER A   3      42.777  32.624  11.204  0.00  0.00    +0.166 C 
BRANCH  29  30
ATOM     30  OG  SER A   3      43.536  33.455  10.342  0.00  0.00    -0.380 OA
ATOM     31  H   SER A   3      43.948  32.902   9.631  0.00  0.00    +0.211 HD
ENDBRANCH  29  30
ENDBRANCH  11  29
ENDBRANCH   7  11
ENDBRANCH   6   9
ENDBRANCH   2   6
ENDBRANCH   1   4
BRANCH   1  32
ATOM     32  C   SER A   5      48.741  35.012   9.364  0.00  0.00    +0.243 C 
ATOM     33  O   SER A   5      49.332  36.086   9.229  0.00  0.00    -0.273 OA
ATOM     34  N   ALA A   6      47.455  34.848   9.063  0.00  0.00    -0.297 N 
ATOM     35  H   ALA A   6      47.017  33.914   9.190  0.00  0.00    +0.150 HD
BRANCH  34  36
ATOM     36  CA  ALA A   6      46.650  35.952   8.559  0.00  0.00    +0.149 C 
ATOM     37  CB  ALA A   6      45.237  35.474   8.252  0.00  0.00    +0.031 C 
BRANCH  36  38
ATOM     38  C   ALA A   6      46.614  37.067   9.595  0.00  0.00    +0.241 C 
ATOM     39  N   ILE A   7      46.562  36.677  10.864  0.00  0.00    -0.297 N 
ATOM     40  H   ILE A   7      46.544  35.659  11.077  0.00  0.00    +0.150 HD
ATOM     41  O   ALA A   6      46.636  38.249   9.252  0.00  0.00    -0.273 OA
BRANCH  39  42
ATOM     42  CA  ILE A   7      46.529  37.628  11.968  0.00  0.00    +0.149 C 
BRANCH  42  43
ATOM     43  C   ILE A   7      47.914  38.234  12.165  0.00  0.00    +0.241 C 
ATOM     44  O   ILE A   7      48.061  39.453  12.270  0.00  0.00    -0.273 OA
ATOM     45  N   VAL A   8      48.922  37.367  12.216  0.00  0.00    -0.297 N 
ATOM     46  H   VAL A   8      48.720  36.353  12.108  0.00  0.00    +0.150 HD
BRANCH  45  47
ATOM     47  CA  VAL A   8      50.301  37.794  12.418  0.00  0.00    +0.149 C 
BRANCH  47  48
ATOM     48  C   VAL A   8      50.792  38.683  11.279  0.00  0.00    +0.241 C 
ATOM     49  O   VAL A   8      51.606  39.580  11.494  0.00  0.00    -0.273 OA
ATOM     50  N   ALA A   9      50.295  38.436  10.070  0.00  0.00    -0.298 N 
ATOM     51  H   ALA A   9      49.609  37.664   9.948  0.00  0.00    +0.150 HD
BRANCH  50  52
ATOM     52  CA  ALA A   9      50.695  39.229   8.911  0.00  0.00    +0.137 C 
ATOM     53  CB  ALA A   9      50.063  38.663   7.642  0.00  0.00    +0.030 C 
BRANCH  52  54
ATOM     54  C   ALA A   9      50.281  40.685   9.097  0.00  0.00    +0.227 C 
ATOM     55  O   ALA A   9      50.978  41.604   8.661  0.00  0.00    -0.286 OA
ENDBRANCH  52  54
ENDBRANCH  50  52
ENDBRANCH  47  48
BRANCH  47  56
ATOM     56  CB  VAL A   8      51.244  36.575  12.551  0.00  0.00    +0.027 C 
ATOM     57  CG2 VAL A   8      50.740  35.649  13.651  0.00  0.00    +0.002 C 
ATOM     58  CG1 VAL A   8      52.662  37.037  12.862  0.00  0.00    +0.002 C 
ENDBRANCH  47  56
ENDBRANCH  45  47
ENDBRANCH  42  43
BRANCH  42  59
ATOM     59  CB  ILE A   7      46.124  36.942  13.291  0.00  0.00    +0.027 C 
ATOM     60  CG2 ILE A   7      46.192  37.946  14.428  0.00  0.00    +0.002 C 
BRANCH  59  61
ATOM     61  CG1 ILE A   7      44.722  36.335  13.173  0.00  0.00    +0.002 C 
ATOM     62  CD1 ILE A   7      43.602  37.351  13.069  0.00  0.00    +0.000 C 
ENDBRANCH  59  61
ENDBRANCH  42  59
ENDBRANCH  39  42
ENDBRANCH  36  38
ENDBRANCH  34  36
ENDBRANCH   1  32
BRANCH   1  63
ATOM     63  CB  SER A   5      49.968  32.940   8.714  0.00  0.00    +0.166 C 
BRANCH  63  64
ATOM     64  OG  SER A   5      50.918  31.983   9.148  0.00  0.00    -0.380 OA
ATOM     65  H   SER A   5      50.501  31.387   9.820  0.00  0.00    +0.211 HD
ENDBRANCH  63  64
ENDBRANCH   1  63
TORSDOF 27
REMARK  Name = ../refined-set-2016/2cli/2cli_pocket.pdb
REMARK  216 active torsions:
REMARK  status: ('A' for Active; 'I' for Inactive)
REMARK    1  A    between atoms: _1  and  _3
REMARK    2  A    between atoms: _3  and  _4
REMARK    3  A    between atoms: _3  and  _6
REMARK    4  A    between atoms: _10  and  _11
REMARK    5  A    between atoms: _16  and  _18
REMARK    6  A    between atoms: _18  and  _19
REMARK    7  A    between atoms: _18  and  _21
REMARK    8  A    between atoms: _21  and  _22
REMARK    9  A    between atoms: _28  and  _30
REMARK   10  A    between atoms: _30  and  _31
REMARK   11  A    between atoms: _30  and  _33
REMARK   12  A    between atoms: _36  and  _38
REMARK   13  A    between atoms: _38  and  _39
REMARK   14  A    between atoms: _38  and  _41
REMARK   15  A    between atoms: _41  and  _42
REMARK   16  A    between atoms: _45  and  _47
REMARK   17  A    between atoms: _47  and  _48
REMARK   18  A    between atoms: _47  and  _50
REMARK   19  A    between atoms: _50  and  _51
REMARK   20  A    between atoms: _54  and  _56
REMARK   21  A    between atoms: _56  and  _57
REMARK   22  A    between atoms: _56  and  _59
REMARK   23  A    between atoms: _59  and  _60
REMARK   24  A    between atoms: _60  and  _61
REMARK   25  A    between atoms: _64  and  _66
REMARK   26  A    between atoms: _66  and  _67
REMARK   27  A    between atoms: _66  and  _69
REMARK   28  A    between atoms: _69  and  _70
REMARK   29  A    between atoms: _73  and  _75
REMARK   30  A    between atoms: _75  and  _76
REMARK   31  A    between atoms: _78  and  _80
REMARK   32  A    between atoms: _80  and  _81
REMARK   33  A    between atoms: _80  and  _83
REMARK   34  A    between atoms: _83  and  _84
REMARK   35  A    between atoms: _87  and  _89
REMARK   36  A    between atoms: _89  and  _90
REMARK   37  A    between atoms: _93  and  _95
REMARK   38  A    between atoms: _95  and  _96
REMARK   39  A    between atoms: _95  and  _98
REMARK   40  A    between atoms: _98  and  _99
REMARK   41  A    between atoms: _102  and  _104
REMARK   42  A    between atoms: _104  and  _105
REMARK   43  A    between atoms: _107  and  _109
REMARK   44  A    between atoms: _109  and  _110
REMARK   45  A    between atoms: _109  and  _112
REMARK   46  A    between atoms: _112  and  _113
REMARK   47  A    between atoms: _116  and  _118
REMARK   48  A    between atoms: _118  and  _119
REMARK   49  A    between atoms: _118  and  _121
REMARK   50  A    between atoms: _121  and  _122
REMARK   51  A    between atoms: _125  and  _127
REMARK   52  A    between atoms: _127  and  _128
REMARK   53  A    between atoms: _130  and  _132
REMARK   54  A    between atoms: _132  and  _133
REMARK   55  A    between atoms: _132  and  _135
REMARK   56  A    between atoms: _135  and  _136
REMARK   57  A    between atoms: _139  and  _141
REMARK   58  A    between atoms: _141  and  _142
REMARK   59  A    between atoms: _141  and  _144
REMARK   60  A    between atoms: _144  and  _145
REMARK   61  A    between atoms: _148  and  _150
REMARK   62  A    between atoms: _150  and  _151
REMARK   63  A    between atoms: _150  and  _153
REMARK   64  A    between atoms: _153  and  _154
REMARK   65  A    between atoms: _154  and  _155
REMARK   66  A    between atoms: _157  and  _159
REMARK   67  A    between atoms: _159  and  _160
REMARK   68  A    between atoms: _159  and  _162
REMARK   69  A    between atoms: _162  and  _163
REMARK   70  A    between atoms: _168  and  _169
REMARK   71  A    between atoms: _171  and  _173
REMARK   72  A    between atoms: _173  and  _174
REMARK   73  A    between atoms: _173  and  _176
REMARK   74  A    between atoms: _176  and  _177
REMARK   75  A    between atoms: _180  and  _182
REMARK   76  A    between atoms: _182  and  _183
REMARK   77  A    between atoms: _182  and  _185
REMARK   78  A    between atoms: _188  and  _190
REMARK   79  A    between atoms: _190  and  _191
REMARK   80  A    between atoms: _194  and  _196
REMARK   81  A    between atoms: _196  and  _197
REMARK   82  A    between atoms: _196  and  _199
REMARK   83  A    between atoms: _199  and  _200
REMARK   84  A    between atoms: _203  and  _205
REMARK   85  A    between atoms: _205  and  _206
REMARK   86  A    between atoms: _205  and  _208
REMARK   87  A    between atoms: _212  and  _213
REMARK   88  A    between atoms: _218  and  _220
REMARK   89  A    between atoms: _220  and  _221
REMARK   90  A    between atoms: _220  and  _223
REMARK   91  A    between atoms: _223  and  _224
REMARK   92  A    between atoms: _227  and  _229
REMARK   93  A    between atoms: _229  and  _230
REMARK   94  A    between atoms: _229  and  _232
REMARK   95  A    between atoms: _232  and  _233
REMARK   96  A    between atoms: _239  and  _241
REMARK   97  A    between atoms: _241  and  _242
REMARK   98  A    between atoms: _241  and  _244
REMARK   99  A    between atoms: _244  and  _245
REMARK  100  A    between atoms: _248  and  _250
REMARK  101  A    between atoms: _250  and  _251
REMARK  102  A    between atoms: _250  and  _253
REMARK  103  A    between atoms: _256  and  _257
REMARK  104  A    between atoms: _262  and  _264
REMARK  105  A    between atoms: _264  and  _265
REMARK  106  A    between atoms: _264  and  _267
REMARK  107  A    between atoms: _267  and  _268
REMARK  108  A    between atoms: _273  and  _274
REMARK  109  A    between atoms: _276  and  _278
REMARK  110  A    between atoms: _278  and  _279
REMARK  111  A    between atoms: _278  and  _281
REMARK  112  A    between atoms: _281  and  _282
REMARK  113  A    between atoms: _287  and  _288
REMARK  114  A    between atoms: _290  and  _292
REMARK  115  A    between atoms: _292  and  _293
REMARK  116  A    between atoms: _292  and  _295
REMARK  117  A    between atoms: _295  and  _296
REMARK  118  A    between atoms: _299  and  _301
REMARK  119  A    between atoms: _301  and  _302
REMARK  120  A    between atoms: _301  and  _304
REMARK  121  A    between atoms: _304  and  _305
REMARK  122  A    between atoms: _307  and  _309
REMARK  123  A    between atoms: _309  and  _310
REMARK  124  A    between atoms: _309  and  _312
REMARK  125  A    between atoms: _312  and  _313
REMARK  126  A    between atoms: _313  and  _314
REMARK  127  A    between atoms: _314  and  _315
REMARK  128  A    between atoms: _324  and  _326
REMARK  129  A    between atoms: _326  and  _327
REMARK  130  A    between atoms: _329  and  _331
REMARK  131  A    between atoms: _331  and  _332
REMARK  132  A    between atoms: _331  and  _334
REMARK  133  A    between atoms: _337  and  _339
REMARK  134  A    between atoms: _339  and  _340
REMARK  135  A    between atoms: _339  and  _342
REMARK  136  A    between atoms: _342  and  _343
REMARK  137  A    between atoms: _346  and  _348
REMARK  138  A    between atoms: _348  and  _349
REMARK  139  A    between atoms: _351  and  _353
REMARK  140  A    between atoms: _353  and  _354
REMARK  141  A    between atoms: _353  and  _356
REMARK  142  A    between atoms: _356  and  _357
REMARK  143  A    between atoms: _360  and  _362
REMARK  144  A    between atoms: _362  and  _363
REMARK  145  A    between atoms: _362  and  _365
REMARK  146  A    between atoms: _365  and  _366
REMARK  147  A    between atoms: _366  and  _367
REMARK  148  A    between atoms: _372  and  _374
REMARK  149  A    between atoms: _374  and  _375
REMARK  150  A    between atoms: _377  and  _379
REMARK  151  A    between atoms: _379  and  _380
REMARK  152  A    between atoms: _379  and  _382
REMARK  153  A    between atoms: _382  and  _383
REMARK  154  A    between atoms: _389  and  _391
REMARK  155  A    between atoms: _391  and  _392
REMARK  156  A    between atoms: _394  and  _396
REMARK  157  A    between atoms: _396  and  _397
REMARK  158  A    between atoms: _396  and  _399
REMARK  159  A    between atoms: _399  and  _400
REMARK  160  A    between atoms: _403  and  _405
REMARK  161  A    between atoms: _405  and  _406
REMARK  162  A    between atoms: _405  and  _408
REMARK  163  A    between atoms: _408  and  _409
REMARK  164  A    between atoms: _411  and  _413
REMARK  165  A    between atoms: _413  and  _414
REMARK  166  A    between atoms: _413  and  _416
REMARK  167  A    between atoms: _416  and  _417
REMARK  168  A    between atoms: _417  and  _418
REMARK  169  A    between atoms: _423  and  _425
REMARK  170  A    between atoms: _425  and  _426
REMARK  171  A    between atoms: _429  and  _431
REMARK  172  A    between atoms: _431  and  _432
REMARK  173  A    between atoms: _431  and  _434
REMARK  174  A    between atoms: _434  and  _435
REMARK  175  A    between atoms: _438  and  _440
REMARK  176  A    between atoms: _440  and  _441
REMARK  177  A    between atoms: _440  and  _443
REMARK  178  A    between atoms: _443  and  _444
REMARK  179  A    between atoms: _446  and  _448
REMARK  180  A    between atoms: _448  and  _449
REMARK  181  A    between atoms: _451  and  _453
REMARK  182  A    between atoms: _453  and  _454
REMARK  183  A    between atoms: _453  and  _456
REMARK  184  A    between atoms: _456  and  _457
REMARK  185  A    between atoms: _459  and  _461
REMARK  186  A    between atoms: _461  and  _462
REMARK  187  A    between atoms: _465  and  _467
REMARK  188  A    between atoms: _467  and  _468
REMARK  189  A    between atoms: _467  and  _470
REMARK  190  A    between atoms: _470  and  _471
REMARK  191  A    between atoms: _474  and  _476
REMARK  192  A    between atoms: _476  and  _477
REMARK  193  A    between atoms: _476  and  _479
REMARK  194  A    between atoms: _482  and  _484
REMARK  195  A    between atoms: _484  and  _485
REMARK  196  A    between atoms: _488  and  _490
REMARK  197  A    between atoms: _490  and  _491
REMARK  198  A    between atoms: _490  and  _493
REMARK  199  A    between atoms: _497  and  _498
REMARK  200  A    between atoms: _503  and  _505
REMARK  201  A    between atoms: _505  and  _506
REMARK  202  A    between atoms: _505  and  _508
REMARK  203  A    between atoms: _508  and  _509
REMARK  204  A    between atoms: _509  and  _510
REMARK  205  A    between atoms: _515  and  _517
REMARK  206  A    between atoms: _517  and  _518
REMARK  207  A    between atoms: _517  and  _520
REMARK  208  A    between atoms: _520  and  _521
REMARK  209  A    between atoms: _524  and  _526
REMARK  210  A    between atoms: _526  and  _527
REMARK  211  A    between atoms: _526  and  _529
REMARK  212  A    between atoms: _529  and  _530
REMARK  213  A    between atoms: _533  and  _535
REMARK  214  A    between atoms: _535  and  _536
REMARK  215  A    between atoms: _535  and  _538
REMARK  216  A    between atoms: _538  and  _539
REMARK                            x       y       z     vdW  Elec       q    Type
REMARK                         _______ _______ _______ _____ _____    ______ ____
ROOT
ATOM      1  CA  GLN A   3      51.935  14.225  13.759  0.00  0.00    +0.149 C 
ENDROOT
BRANCH   1   3
ATOM      2  C   PRO A   2      53.971  15.571  13.793  0.00  0.00    +0.241 C 
ATOM      3  N   GLN A   3      52.711  15.391  14.176  0.00  0.00    -0.297 N 
ATOM      4  H   GLN A   3      52.264  16.101  14.791  0.00  0.00    +0.150 HD
ATOM      5  O   PRO A   2      54.565  14.789  13.040  0.00  0.00    -0.273 OA
BRANCH   2   9
ATOM      6  C   VAL A   1      56.482  15.518  15.298  0.00  0.00    +0.241 C 
ATOM      7  O   VAL A   1      55.674  14.834  15.924  0.00  0.00    -0.273 OA
ATOM      8  N   PRO A   2      56.098  16.526  14.500  0.00  0.00    -0.272 N 
ATOM      9  CA  PRO A   2      54.672  16.820  14.330  0.00  0.00    +0.152 C 
ATOM     10  CB  PRO A   2      54.678  17.965  13.326  0.00  0.00    +0.031 C 
ATOM     11  CG  PRO A   2      55.944  18.708  13.688  0.00  0.00    +0.024 C 
ATOM     12  CD  PRO A   2      56.931  17.563  13.865  0.00  0.00    +0.094 C 
BRANCH   6  13
ATOM     13  CA  VAL A   1      57.978  15.254  15.422  0.00  0.00    +0.145 C 
BRANCH  13  14
ATOM     14  CB  VAL A   1      58.427  14.509  14.139  0.00  0.00    +0.025 C 
ATOM     15  CG2 VAL A   1      59.925  14.278  14.158  0.00  0.00    +0.002 C 
ATOM     16  CG1 VAL A   1      57.684  13.183  14.020  0.00  0.00    +0.002 C 
ENDBRANCH  13  14
BRANCH  13  17
ATOM     17  N   VAL A   1      58.201  14.454  16.619  0.00  0.00    -0.238 NA
ATOM     18  H   VAL A   1      57.651  13.581  16.752  0.00  0.00    +0.142 HD
ENDBRANCH  13  17
ENDBRANCH   6  13
ENDBRANCH   2   9
ENDBRANCH   1   3
BRANCH   1  19
ATOM     19  C   GLN A   3      52.013  13.944  12.258  0.00  0.00    +0.241 C 
ATOM     20  O   GLN A   3      52.042  12.786  11.828  0.00  0.00    -0.273 OA
ATOM     21  N   ILE A   4      52.049  15.008  11.465  0.00  0.00    -0.297 N 
ATOM     22  H   ILE A   4      52.050  15.955  11.894  0.00  0.00    +0.150 HD
BRANCH  21  23
ATOM     23  CA  ILE A   4      52.087  14.891  10.011  0.00  0.00    +0.149 C 
BRANCH  23  24
ATOM     24  C   ILE A   4      53.300  14.123   9.480  0.00  0.00    +0.241 C 
ATOM     25  N   LEU A   5      54.394  14.118  10.239  0.00  0.00    -0.298 N 
ATOM     26  H   LEU A   5      54.382  14.618  11.151  0.00  0.00    +0.150 HD
ATOM     27  O   ILE A   4      53.242  13.546   8.393  0.00  0.00    -0.273 OA
BRANCH  25  28
ATOM     28  CA  LEU A   5      55.614  13.424   9.819  0.00  0.00    +0.137 C 
BRANCH  28  29
ATOM     29  C   LEU A   5      55.730  11.975  10.281  0.00  0.00    +0.227 C 
ATOM     30  O   LEU A   5      56.646  11.269   9.861  0.00  0.00    -0.286 OA
ENDBRANCH  28  29
BRANCH  28  31
ATOM     31  CB  LEU A   5      56.854  14.185  10.302  0.00  0.00    +0.028 C 
BRANCH  31  32
ATOM     32  CG  LEU A   5      57.288  15.402   9.484  0.00  0.00    +0.002 C 
ATOM     33  CD2 LEU A   5      58.428  16.113  10.189  0.00  0.00    +0.000 C 
ATOM     34  CD1 LEU A   5      57.708  14.954   8.092  0.00  0.00    +0.000 C 
ENDBRANCH  31  32
ENDBRANCH  28  31
ENDBRANCH  25  28
ENDBRANCH  23  24
BRANCH  23  35
ATOM     35  CB  ILE A   4      52.055  16.297   9.354  0.00  0.00    +0.027 C 
ATOM     36  CG2 ILE A   4      53.363  17.027   9.621  0.00  0.00    +0.002 C 
BRANCH  35  37
ATOM     37  CG1 ILE A   4      51.794  16.177   7.852  0.00  0.00    +0.002 C 
ATOM     38  CD1 ILE A   4      50.404  15.691   7.510  0.00  0.00    +0.000 C 
ENDBRANCH  35  37
ENDBRANCH  23  35
ENDBRANCH  21  23
ENDBRANCH   1  19
BRANCH   1  39
ATOM     39  CB  GLN A   3      50.468  14.406  14.162  0.00  0.00    +0.039 C 
BRANCH  39  40
ATOM     40  CG  GLN A   3      49.655  13.117  14.120  0.00  0.00    +0.087 C 
BRANCH  40  41
ATOM     41  CD  GLN A   3      50.079  12.137  15.197  0.00  0.00    +0.219 C 
ATOM     42  OE1 GLN A   3      50.059  12.461  16.383  0.00  0.00    -0.275 OA
ATOM     43  NE2 GLN A   3      50.463  10.931  14.790  0.00  0.00    -0.329 N 
ATOM     44 HE21 GLN A   3      50.762  10.218  15.486  0.00  0.00    +0.145 HD
ATOM     45 HE22 GLN A   3      50.464  10.700  13.776  0.00  0.00    +0.145 HD
ENDBRANCH  40  41
ENDBRANCH  39  40
ENDBRANCH   1  39
TORSDOF 17
REMARK  Name = ../refined-set-2016/2cli/2cli_pocket.pdb
REMARK  216 active torsions:
REMARK  status: ('A' for Active; 'I' for Inactive)
REMARK    1  A    between atoms: _1  and  _3
REMARK    2  A    between atoms: _3  and  _4
REMARK    3  A    between atoms: _3  and  _6
REMARK    4  A    between atoms: _10  and  _11
REMARK    5  A    between atoms: _16  and  _18
REMARK    6  A    between atoms: _18  and  _19
REMARK    7  A    between atoms: _18  and  _21
REMARK    8  A    between atoms: _21  and  _22
REMARK    9  A    between atoms: _28  and  _30
REMARK   10  A    between atoms: _30  and  _31
REMARK   11  A    between atoms: _30  and  _33
REMARK   12  A    between atoms: _36  and  _38
REMARK   13  A    between atoms: _38  and  _39
REMARK   14  A    between atoms: _38  and  _41
REMARK   15  A    between atoms: _41  and  _42
REMARK   16  A    between atoms: _45  and  _47
REMARK   17  A    between atoms: _47  and  _48
REMARK   18  A    between atoms: _47  and  _50
REMARK   19  A    between atoms: _50  and  _51
REMARK   20  A    between atoms: _54  and  _56
REMARK   21  A    between atoms: _56  and  _57
REMARK   22  A    between atoms: _56  and  _59
REMARK   23  A    between atoms: _59  and  _60
REMARK   24  A    between atoms: _60  and  _61
REMARK   25  A    between atoms: _64  and  _66
REMARK   26  A    between atoms: _66  and  _67
REMARK   27  A    between atoms: _66  and  _69
REMARK   28  A    between atoms: _69  and  _70
REMARK   29  A    between atoms: _73  and  _75
REMARK   30  A    between atoms: _75  and  _76
REMARK   31  A    between atoms: _78  and  _80
REMARK   32  A    between atoms: _80  and  _81
REMARK   33  A    between atoms: _80  and  _83
REMARK   34  A    between atoms: _83  and  _84
REMARK   35  A    between atoms: _87  and  _89
REMARK   36  A    between atoms: _89  and  _90
REMARK   37  A    between atoms: _93  and  _95
REMARK   38  A    between atoms: _95  and  _96
REMARK   39  A    between atoms: _95  and  _98
REMARK   40  A    between atoms: _98  and  _99
REMARK   41  A    between atoms: _102  and  _104
REMARK   42  A    between atoms: _104  and  _105
REMARK   43  A    between atoms: _107  and  _109
REMARK   44  A    between atoms: _109  and  _110
REMARK   45  A    between atoms: _109  and  _112
REMARK   46  A    between atoms: _112  and  _113
REMARK   47  A    between atoms: _116  and  _118
REMARK   48  A    between atoms: _118  and  _119
REMARK   49  A    between atoms: _118  and  _121
REMARK   50  A    between atoms: _121  and  _122
REMARK   51  A    between atoms: _125  and  _127
REMARK   52  A    between atoms: _127  and  _128
REMARK   53  A    between atoms: _130  and  _132
REMARK   54  A    between atoms: _132  and  _133
REMARK   55  A    between atoms: _132  and  _135
REMARK   56  A    between atoms: _135  and  _136
REMARK   57  A    between atoms: _139  and  _141
REMARK   58  A    between atoms: _141  and  _142
REMARK   59  A    between atoms: _141  and  _144
REMARK   60  A    between atoms: _144  and  _145
REMARK   61  A    between atoms: _148  and  _150
REMARK   62  A    between atoms: _150  and  _151
REMARK   63  A    between atoms: _150  and  _153
REMARK   64  A    between atoms: _153  and  _154
REMARK   65  A    between atoms: _154  and  _155
REMARK   66  A    between atoms: _157  and  _159
REMARK   67  A    between atoms: _159  and  _160
REMARK   68  A    between atoms: _159  and  _162
REMARK   69  A    between atoms: _162  and  _163
REMARK   70  A    between atoms: _168  and  _169
REMARK   71  A    between atoms: _171  and  _173
REMARK   72  A    between atoms: _173  and  _174
REMARK   73  A    between atoms: _173  and  _176
REMARK   74  A    between atoms: _176  and  _177
REMARK   75  A    between atoms: _180  and  _182
REMARK   76  A    between atoms: _182  and  _183
REMARK   77  A    between atoms: _182  and  _185
REMARK   78  A    between atoms: _188  and  _190
REMARK   79  A    between atoms: _190  and  _191
REMARK   80  A    between atoms: _194  and  _196
REMARK   81  A    between atoms: _196  and  _197
REMARK   82  A    between atoms: _196  and  _199
REMARK   83  A    between atoms: _199  and  _200
REMARK   84  A    between atoms: _203  and  _205
REMARK   85  A    between atoms: _205  and  _206
REMARK   86  A    between atoms: _205  and  _208
REMARK   87  A    between atoms: _212  and  _213
REMARK   88  A    between atoms: _218  and  _220
REMARK   89  A    between atoms: _220  and  _221
REMARK   90  A    between atoms: _220  and  _223
REMARK   91  A    between atoms: _223  and  _224
REMARK   92  A    between atoms: _227  and  _229
REMARK   93  A    between atoms: _229  and  _230
REMARK   94  A    between atoms: _229  and  _232
REMARK   95  A    between atoms: _232  and  _233
REMARK   96  A    between atoms: _239  and  _241
REMARK   97  A    between atoms: _241  and  _242
REMARK   98  A    between atoms: _241  and  _244
REMARK   99  A    between atoms: _244  and  _245
REMARK  100  A    between atoms: _248  and  _250
REMARK  101  A    between atoms: _250  and  _251
REMARK  102  A    between atoms: _250  and  _253
REMARK  103  A    between atoms: _256  and  _257
REMARK  104  A    between atoms: _262  and  _264
REMARK  105  A    between atoms: _264  and  _265
REMARK  106  A    between atoms: _264  and  _267
REMARK  107  A    between atoms: _267  and  _268
REMARK  108  A    between atoms: _273  and  _274
REMARK  109  A    between atoms: _276  and  _278
REMARK  110  A    between atoms: _278  and  _279
REMARK  111  A    between atoms: _278  and  _281
REMARK  112  A    between atoms: _281  and  _282
REMARK  113  A    between atoms: _287  and  _288
REMARK  114  A    between atoms: _290  and  _292
REMARK  115  A    between atoms: _292  and  _293
REMARK  116  A    between atoms: _292  and  _295
REMARK  117  A    between atoms: _295  and  _296
REMARK  118  A    between atoms: _299  and  _301
REMARK  119  A    between atoms: _301  and  _302
REMARK  120  A    between atoms: _301  and  _304
REMARK  121  A    between atoms: _304  and  _305
REMARK  122  A    between atoms: _307  and  _309
REMARK  123  A    between atoms: _309  and  _310
REMARK  124  A    between atoms: _309  and  _312
REMARK  125  A    between atoms: _312  and  _313
REMARK  126  A    between atoms: _313  and  _314
REMARK  127  A    between atoms: _314  and  _315
REMARK  128  A    between atoms: _324  and  _326
REMARK  129  A    between atoms: _326  and  _327
REMARK  130  A    between atoms: _329  and  _331
REMARK  131  A    between atoms: _331  and  _332
REMARK  132  A    between atoms: _331  and  _334
REMARK  133  A    between atoms: _337  and  _339
REMARK  134  A    between atoms: _339  and  _340
REMARK  135  A    between atoms: _339  and  _342
REMARK  136  A    between atoms: _342  and  _343
REMARK  137  A    between atoms: _346  and  _348
REMARK  138  A    between atoms: _348  and  _349
REMARK  139  A    between atoms: _351  and  _353
REMARK  140  A    between atoms: _353  and  _354
REMARK  141  A    between atoms: _353  and  _356
REMARK  142  A    between atoms: _356  and  _357
REMARK  143  A    between atoms: _360  and  _362
REMARK  144  A    between atoms: _362  and  _363
REMARK  145  A    between atoms: _362  and  _365
REMARK  146  A    between atoms: _365  and  _366
REMARK  147  A    between atoms: _366  and  _367
REMARK  148  A    between atoms: _372  and  _374
REMARK  149  A    between atoms: _374  and  _375
REMARK  150  A    between atoms: _377  and  _379
REMARK  151  A    between atoms: _379  and  _380
REMARK  152  A    between atoms: _379  and  _382
REMARK  153  A    between atoms: _382  and  _383
REMARK  154  A    between atoms: _389  and  _391
REMARK  155  A    between atoms: _391  and  _392
REMARK  156  A    between atoms: _394  and  _396
REMARK  157  A    between atoms: _396  and  _397
REMARK  158  A    between atoms: _396  and  _399
REMARK  159  A    between atoms: _399  and  _400
REMARK  160  A    between atoms: _403  and  _405
REMARK  161  A    between atoms: _405  and  _406
REMARK  162  A    between atoms: _405  and  _408
REMARK  163  A    between atoms: _408  and  _409
REMARK  164  A    between atoms: _411  and  _413
REMARK  165  A    between atoms: _413  and  _414
REMARK  166  A    between atoms: _413  and  _416
REMARK  167  A    between atoms: _416  and  _417
REMARK  168  A    between atoms: _417  and  _418
REMARK  169  A    between atoms: _423  and  _425
REMARK  170  A    between atoms: _425  and  _426
REMARK  171  A    between atoms: _429  and  _431
REMARK  172  A    between atoms: _431  and  _432
REMARK  173  A    between atoms: _431  and  _434
REMARK  174  A    between atoms: _434  and  _435
REMARK  175  A    between atoms: _438  and  _440
REMARK  176  A    between atoms: _440  and  _441
REMARK  177  A    between atoms: _440  and  _443
REMARK  178  A    between atoms: _443  and  _444
REMARK  179  A    between atoms: _446  and  _448
REMARK  180  A    between atoms: _448  and  _449
REMARK  181  A    between atoms: _451  and  _453
REMARK  182  A    between atoms: _453  and  _454
REMARK  183  A    between atoms: _453  and  _456
REMARK  184  A    between atoms: _456  and  _457
REMARK  185  A    between atoms: _459  and  _461
REMARK  186  A    between atoms: _461  and  _462
REMARK  187  A    between atoms: _465  and  _467
REMARK  188  A    between atoms: _467  and  _468
REMARK  189  A    between atoms: _467  and  _470
REMARK  190  A    between atoms: _470  and  _471
REMARK  191  A    between atoms: _474  and  _476
REMARK  192  A    between atoms: _476  and  _477
REMARK  193  A    between atoms: _476  and  _479
REMARK  194  A    between atoms: _482  and  _484
REMARK  195  A    between atoms: _484  and  _485
REMARK  196  A    between atoms: _488  and  _490
REMARK  197  A    between atoms: _490  and  _491
REMARK  198  A    between atoms: _490  and  _493
REMARK  199  A    between atoms: _497  and  _498
REMARK  200  A    between atoms: _503  and  _505
REMARK  201  A    between atoms: _505  and  _506
REMARK  202  A    between atoms: _505  and  _508
REMARK  203  A    between atoms: _508  and  _509
REMARK  204  A    between atoms: _509  and  _510
REMARK  205  A    between atoms: _515  and  _517
REMARK  206  A    between atoms: _517  and  _518
REMARK  207  A    between atoms: _517  and  _520
REMARK  208  A    between atoms: _520  and  _521
REMARK  209  A    between atoms: _524  and  _526
REMARK  210  A    between atoms: _526  and  _527
REMARK  211  A    between atoms: _526  and  _529
REMARK  212  A    between atoms: _529  and  _530
REMARK  213  A    between atoms: _533  and  _535
REMARK  214  A    between atoms: _535  and  _536
REMARK  215  A    between atoms: _535  and  _538
REMARK  216  A    between atoms: _538  and  _539
REMARK                            x       y       z     vdW  Elec       q    Type
REMARK                         _______ _______ _______ _____ _____    ______ ____
ROOT
ATOM      1  CA  SER A   1      56.605  17.652   6.304  0.00  0.00    +0.163 C 
ENDROOT
BRANCH   1   2
ATOM      2  N   SER A   1      57.952  17.792   5.758  0.00  0.00    -0.237 NA
ATOM      3  H   SER A   1      58.575  18.541   6.122  0.00  0.00    +0.142 HD
ENDBRANCH   1   2
BRANCH   1   4
ATOM      4  C   SER A   1      55.545  17.997   5.268  0.00  0.00    +0.227 C 
ATOM      5  O   SER A   1      54.369  18.155   5.597  0.00  0.00    -0.287 OA
ENDBRANCH   1   4
BRANCH   1   6
ATOM      6  CB  SER A   1      56.429  18.540   7.541  0.00  0.00    +0.162 C 
BRANCH   6   7
ATOM      7  OG  SER A   1      56.479  19.918   7.210  0.00  0.00    -0.380 OA
ATOM      8  H   SER A   1      57.355  20.126   6.799  0.00  0.00    +0.211 HD
ENDBRANCH   6   7
ENDBRANCH   1   6
TORSDOF 4
REMARK  Name = ../refined-set-2016/2cli/2cli_pocket.pdb
REMARK  216 active torsions:
REMARK  status: ('A' for Active; 'I' for Inactive)
REMARK    1  A    between atoms: _1  and  _3
REMARK    2  A    between atoms: _3  and  _4
REMARK    3  A    between atoms: _3  and  _6
REMARK    4  A    between atoms: _10  and  _11
REMARK    5  A    between atoms: _16  and  _18
REMARK    6  A    between atoms: _18  and  _19
REMARK    7  A    between atoms: _18  and  _21
REMARK    8  A    between atoms: _21  and  _22
REMARK    9  A    between atoms: _28  and  _30
REMARK   10  A    between atoms: _30  and  _31
REMARK   11  A    between atoms: _30  and  _33
REMARK   12  A    between atoms: _36  and  _38
REMARK   13  A    between atoms: _38  and  _39
REMARK   14  A    between atoms: _38  and  _41
REMARK   15  A    between atoms: _41  and  _42
REMARK   16  A    between atoms: _45  and  _47
REMARK   17  A    between atoms: _47  and  _48
REMARK   18  A    between atoms: _47  and  _50
REMARK   19  A    between atoms: _50  and  _51
REMARK   20  A    between atoms: _54  and  _56
REMARK   21  A    between atoms: _56  and  _57
REMARK   22  A    between atoms: _56  and  _59
REMARK   23  A    between atoms: _59  and  _60
REMARK   24  A    between atoms: _60  and  _61
REMARK   25  A    between atoms: _64  and  _66
REMARK   26  A    between atoms: _66  and  _67
REMARK   27  A    between atoms: _66  and  _69
REMARK   28  A    between atoms: _69  and  _70
REMARK   29  A    between atoms: _73  and  _75
REMARK   30  A    between atoms: _75  and  _76
REMARK   31  A    between atoms: _78  and  _80
REMARK   32  A    between atoms: _80  and  _81
REMARK   33  A    between atoms: _80  and  _83
REMARK   34  A    between atoms: _83  and  _84
REMARK   35  A    between atoms: _87  and  _89
REMARK   36  A    between atoms: _89  and  _90
REMARK   37  A    between atoms: _93  and  _95
REMARK   38  A    between atoms: _95  and  _96
REMARK   39  A    between atoms: _95  and  _98
REMARK   40  A    between atoms: _98  and  _99
REMARK   41  A    between atoms: _102  and  _104
REMARK   42  A    between atoms: _104  and  _105
REMARK   43  A    between atoms: _107  and  _109
REMARK   44  A    between atoms: _109  and  _110
REMARK   45  A    between atoms: _109  and  _112
REMARK   46  A    between atoms: _112  and  _113
REMARK   47  A    between atoms: _116  and  _118
REMARK   48  A    between atoms: _118  and  _119
REMARK   49  A    between atoms: _118  and  _121
REMARK   50  A    between atoms: _121  and  _122
REMARK   51  A    between atoms: _125  and  _127
REMARK   52  A    between atoms: _127  and  _128
REMARK   53  A    between atoms: _130  and  _132
REMARK   54  A    between atoms: _132  and  _133
REMARK   55  A    between atoms: _132  and  _135
REMARK   56  A    between atoms: _135  and  _136
REMARK   57  A    between atoms: _139  and  _141
REMARK   58  A    between atoms: _141  and  _142
REMARK   59  A    between atoms: _141  and  _144
REMARK   60  A    between atoms: _144  and  _145
REMARK   61  A    between atoms: _148  and  _150
REMARK   62  A    between atoms: _150  and  _151
REMARK   63  A    between atoms: _150  and  _153
REMARK   64  A    between atoms: _153  and  _154
REMARK   65  A    between atoms: _154  and  _155
REMARK   66  A    between atoms: _157  and  _159
REMARK   67  A    between atoms: _159  and  _160
REMARK   68  A    between atoms: _159  and  _162
REMARK   69  A    between atoms: _162  and  _163
REMARK   70  A    between atoms: _168  and  _169
REMARK   71  A    between atoms: _171  and  _173
REMARK   72  A    between atoms: _173  and  _174
REMARK   73  A    between atoms: _173  and  _176
REMARK   74  A    between atoms: _176  and  _177
REMARK   75  A    between atoms: _180  and  _182
REMARK   76  A    between atoms: _182  and  _183
REMARK   77  A    between atoms: _182  and  _185
REMARK   78  A    between atoms: _188  and  _190
REMARK   79  A    between atoms: _190  and  _191
REMARK   80  A    between atoms: _194  and  _196
REMARK   81  A    between atoms: _196  and  _197
REMARK   82  A    between atoms: _196  and  _199
REMARK   83  A    between atoms: _199  and  _200
REMARK   84  A    between atoms: _203  and  _205
REMARK   85  A    between atoms: _205  and  _206
REMARK   86  A    between atoms: _205  and  _208
REMARK   87  A    between atoms: _212  and  _213
REMARK   88  A    between atoms: _218  and  _220
REMARK   89  A    between atoms: _220  and  _221
REMARK   90  A    between atoms: _220  and  _223
REMARK   91  A    between atoms: _223  and  _224
REMARK   92  A    between atoms: _227  and  _229
REMARK   93  A    between atoms: _229  and  _230
REMARK   94  A    between atoms: _229  and  _232
REMARK   95  A    between atoms: _232  and  _233
REMARK   96  A    between atoms: _239  and  _241
REMARK   97  A    between atoms: _241  and  _242
REMARK   98  A    between atoms: _241  and  _244
REMARK   99  A    between atoms: _244  and  _245
REMARK  100  A    between atoms: _248  and  _250
REMARK  101  A    between atoms: _250  and  _251
REMARK  102  A    between atoms: _250  and  _253
REMARK  103  A    between atoms: _256  and  _257
REMARK  104  A    between atoms: _262  and  _264
REMARK  105  A    between atoms: _264  and  _265
REMARK  106  A    between atoms: _264  and  _267
REMARK  107  A    between atoms: _267  and  _268
REMARK  108  A    between atoms: _273  and  _274
REMARK  109  A    between atoms: _276  and  _278
REMARK  110  A    between atoms: _278  and  _279
REMARK  111  A    between atoms: _278  and  _281
REMARK  112  A    between atoms: _281  and  _282
REMARK  113  A    between atoms: _287  and  _288
REMARK  114  A    between atoms: _290  and  _292
REMARK  115  A    between atoms: _292  and  _293
REMARK  116  A    between atoms: _292  and  _295
REMARK  117  A    between atoms: _295  and  _296
REMARK  118  A    between atoms: _299  and  _301
REMARK  119  A    between atoms: _301  and  _302
REMARK  120  A    between atoms: _301  and  _304
REMARK  121  A    between atoms: _304  and  _305
REMARK  122  A    between atoms: _307  and  _309
REMARK  123  A    between atoms: _309  and  _310
REMARK  124  A    between atoms: _309  and  _312
REMARK  125  A    between atoms: _312  and  _313
REMARK  126  A    between atoms: _313  and  _314
REMARK  127  A    between atoms: _314  and  _315
REMARK  128  A    between atoms: _324  and  _326
REMARK  129  A    between atoms: _326  and  _327
REMARK  130  A    between atoms: _329  and  _331
REMARK  131  A    between atoms: _331  and  _332
REMARK  132  A    between atoms: _331  and  _334
REMARK  133  A    between atoms: _337  and  _339
REMARK  134  A    between atoms: _339  and  _340
REMARK  135  A    between atoms: _339  and  _342
REMARK  136  A    between atoms: _342  and  _343
REMARK  137  A    between atoms: _346  and  _348
REMARK  138  A    between atoms: _348  and  _349
REMARK  139  A    between atoms: _351  and  _353
REMARK  140  A    between atoms: _353  and  _354
REMARK  141  A    between atoms: _353  and  _356
REMARK  142  A    between atoms: _356  and  _357
REMARK  143  A    between atoms: _360  and  _362
REMARK  144  A    between atoms: _362  and  _363
REMARK  145  A    between atoms: _362  and  _365
REMARK  146  A    between atoms: _365  and  _366
REMARK  147  A    between atoms: _366  and  _367
REMARK  148  A    between atoms: _372  and  _374
REMARK  149  A    between atoms: _374  and  _375
REMARK  150  A    between atoms: _377  and  _379
REMARK  151  A    between atoms: _379  and  _380
REMARK  152  A    between atoms: _379  and  _382
REMARK  153  A    between atoms: _382  and  _383
REMARK  154  A    between atoms: _389  and  _391
REMARK  155  A    between atoms: _391  and  _392
REMARK  156  A    between atoms: _394  and  _396
REMARK  157  A    between atoms: _396  and  _397
REMARK  158  A    between atoms: _396  and  _399
REMARK  159  A    between atoms: _399  and  _400
REMARK  160  A    between atoms: _403  and  _405
REMARK  161  A    between atoms: _405  and  _406
REMARK  162  A    between atoms: _405  and  _408
REMARK  163  A    between atoms: _408  and  _409
REMARK  164  A    between atoms: _411  and  _413
REMARK  165  A    between atoms: _413  and  _414
REMARK  166  A    between atoms: _413  and  _416
REMARK  167  A    between atoms: _416  and  _417
REMARK  168  A    between atoms: _417  and  _418
REMARK  169  A    between atoms: _423  and  _425
REMARK  170  A    between atoms: _425  and  _426
REMARK  171  A    between atoms: _429  and  _431
REMARK  172  A    between atoms: _431  and  _432
REMARK  173  A    between atoms: _431  and  _434
REMARK  174  A    between atoms: _434  and  _435
REMARK  175  A    between atoms: _438  and  _440
REMARK  176  A    between atoms: _440  and  _441
REMARK  177  A    between atoms: _440  and  _443
REMARK  178  A    between atoms: _443  and  _444
REMARK  179  A    between atoms: _446  and  _448
REMARK  180  A    between atoms: _448  and  _449
REMARK  181  A    between atoms: _451  and  _453
REMARK  182  A    between atoms: _453  and  _454
REMARK  183  A    between atoms: _453  and  _456
REMARK  184  A    between atoms: _456  and  _457
REMARK  185  A    between atoms: _459  and  _461
REMARK  186  A    between atoms: _461  and  _462
REMARK  187  A    between atoms: _465  and  _467
REMARK  188  A    between atoms: _467  and  _468
REMARK  189  A    between atoms: _467  and  _470
REMARK  190  A    between atoms: _470  and  _471
REMARK  191  A    between atoms: _474  and  _476
REMARK  192  A    between atoms: _476  and  _477
REMARK  193  A    between atoms: _476  and  _479
REMARK  194  A    between atoms: _482  and  _484
REMARK  195  A    between atoms: _484  and  _485
REMARK  196  A    between atoms: _488  and  _490
REMARK  197  A    between atoms: _490  and  _491
REMARK  198  A    between atoms: _490  and  _493
REMARK  199  A    between atoms: _497  and  _498
REMARK  200  A    between atoms: _503  and  _505
REMARK  201  A    between atoms: _505  and  _506
REMARK  202  A    between atoms: _505  and  _508
REMARK  203  A    between atoms: _508  and  _509
REMARK  204  A    between atoms: _509  and  _510
REMARK  205  A    between atoms: _515  and  _517
REMARK  206  A    between atoms: _517  and  _518
REMARK  207  A    between atoms: _517  and  _520
REMARK  208  A    between atoms: _520  and  _521
REMARK  209  A    between atoms: _524  and  _526
REMARK  210  A    between atoms: _526  and  _527
REMARK  211  A    between atoms: _526  and  _529
REMARK  212  A    between atoms: _529  and  _530
REMARK  213  A    between atoms: _533  and  _535
REMARK  214  A    between atoms: _535  and  _536
REMARK  215  A    between atoms: _535  and  _538
REMARK  216  A    between atoms: _538  and  _539
REMARK                            x       y       z     vdW  Elec       q    Type
REMARK                         _______ _______ _______ _____ _____    ______ ____
ROOT
ATOM      1  O   HOH     1      42.205  27.770  21.797  0.00  0.00    +0.000 OA
ENDROOT
TORSDOF 0
REMARK  Name = ../refined-set-2016/2cli/2cli_pocket.pdb
REMARK  216 active torsions:
REMARK  status: ('A' for Active; 'I' for Inactive)
REMARK    1  A    between atoms: _1  and  _3
REMARK    2  A    between atoms: _3  and  _4
REMARK    3  A    between atoms: _3  and  _6
REMARK    4  A    between atoms: _10  and  _11
REMARK    5  A    between atoms: _16  and  _18
REMARK    6  A    between atoms: _18  and  _19
REMARK    7  A    between atoms: _18  and  _21
REMARK    8  A    between atoms: _21  and  _22
REMARK    9  A    between atoms: _28  and  _30
REMARK   10  A    between atoms: _30  and  _31
REMARK   11  A    between atoms: _30  and  _33
REMARK   12  A    between atoms: _36  and  _38
REMARK   13  A    between atoms: _38  and  _39
REMARK   14  A    between atoms: _38  and  _41
REMARK   15  A    between atoms: _41  and  _42
REMARK   16  A    between atoms: _45  and  _47
REMARK   17  A    between atoms: _47  and  _48
REMARK   18  A    between atoms: _47  and  _50
REMARK   19  A    between atoms: _50  and  _51
REMARK   20  A    between atoms: _54  and  _56
REMARK   21  A    between atoms: _56  and  _57
REMARK   22  A    between atoms: _56  and  _59
REMARK   23  A    between atoms: _59  and  _60
REMARK   24  A    between atoms: _60  and  _61
REMARK   25  A    between atoms: _64  and  _66
REMARK   26  A    between atoms: _66  and  _67
REMARK   27  A    between atoms: _66  and  _69
REMARK   28  A    between atoms: _69  and  _70
REMARK   29  A    between atoms: _73  and  _75
REMARK   30  A    between atoms: _75  and  _76
REMARK   31  A    between atoms: _78  and  _80
REMARK   32  A    between atoms: _80  and  _81
REMARK   33  A    between atoms: _80  and  _83
REMARK   34  A    between atoms: _83  and  _84
REMARK   35  A    between atoms: _87  and  _89
REMARK   36  A    between atoms: _89  and  _90
REMARK   37  A    between atoms: _93  and  _95
REMARK   38  A    between atoms: _95  and  _96
REMARK   39  A    between atoms: _95  and  _98
REMARK   40  A    between atoms: _98  and  _99
REMARK   41  A    between atoms: _102  and  _104
REMARK   42  A    between atoms: _104  and  _105
REMARK   43  A    between atoms: _107  and  _109
REMARK   44  A    between atoms: _109  and  _110
REMARK   45  A    between atoms: _109  and  _112
REMARK   46  A    between atoms: _112  and  _113
REMARK   47  A    between atoms: _116  and  _118
REMARK   48  A    between atoms: _118  and  _119
REMARK   49  A    between atoms: _118  and  _121
REMARK   50  A    between atoms: _121  and  _122
REMARK   51  A    between atoms: _125  and  _127
REMARK   52  A    between atoms: _127  and  _128
REMARK   53  A    between atoms: _130  and  _132
REMARK   54  A    between atoms: _132  and  _133
REMARK   55  A    between atoms: _132  and  _135
REMARK   56  A    between atoms: _135  and  _136
REMARK   57  A    between atoms: _139  and  _141
REMARK   58  A    between atoms: _141  and  _142
REMARK   59  A    between atoms: _141  and  _144
REMARK   60  A    between atoms: _144  and  _145
REMARK   61  A    between atoms: _148  and  _150
REMARK   62  A    between atoms: _150  and  _151
REMARK   63  A    between atoms: _150  and  _153
REMARK   64  A    between atoms: _153  and  _154
REMARK   65  A    between atoms: _154  and  _155
REMARK   66  A    between atoms: _157  and  _159
REMARK   67  A    between atoms: _159  and  _160
REMARK   68  A    between atoms: _159  and  _162
REMARK   69  A    between atoms: _162  and  _163
REMARK   70  A    between atoms: _168  and  _169
REMARK   71  A    between atoms: _171  and  _173
REMARK   72  A    between atoms: _173  and  _174
REMARK   73  A    between atoms: _173  and  _176
REMARK   74  A    between atoms: _176  and  _177
REMARK   75  A    between atoms: _180  and  _182
REMARK   76  A    between atoms: _182  and  _183
REMARK   77  A    between atoms: _182  and  _185
REMARK   78  A    between atoms: _188  and  _190
REMARK   79  A    between atoms: _190  and  _191
REMARK   80  A    between atoms: _194  and  _196
REMARK   81  A    between atoms: _196  and  _197
REMARK   82  A    between atoms: _196  and  _199
REMARK   83  A    between atoms: _199  and  _200
REMARK   84  A    between atoms: _203  and  _205
REMARK   85  A    between atoms: _205  and  _206
REMARK   86  A    between atoms: _205  and  _208
REMARK   87  A    between atoms: _212  and  _213
REMARK   88  A    between atoms: _218  and  _220
REMARK   89  A    between atoms: _220  and  _221
REMARK   90  A    between atoms: _220  and  _223
REMARK   91  A    between atoms: _223  and  _224
REMARK   92  A    between atoms: _227  and  _229
REMARK   93  A    between atoms: _229  and  _230
REMARK   94  A    between atoms: _229  and  _232
REMARK   95  A    between atoms: _232  and  _233
REMARK   96  A    between atoms: _239  and  _241
REMARK   97  A    between atoms: _241  and  _242
REMARK   98  A    between atoms: _241  and  _244
REMARK   99  A    between atoms: _244  and  _245
REMARK  100  A    between atoms: _248  and  _250
REMARK  101  A    between atoms: _250  and  _251
REMARK  102  A    between atoms: _250  and  _253
REMARK  103  A    between atoms: _256  and  _257
REMARK  104  A    between atoms: _262  and  _264
REMARK  105  A    between atoms: _264  and  _265
REMARK  106  A    between atoms: _264  and  _267
REMARK  107  A    between atoms: _267  and  _268
REMARK  108  A    between atoms: _273  and  _274
REMARK  109  A    between atoms: _276  and  _278
REMARK  110  A    between atoms: _278  and  _279
REMARK  111  A    between atoms: _278  and  _281
REMARK  112  A    between atoms: _281  and  _282
REMARK  113  A    between atoms: _287  and  _288
REMARK  114  A    between atoms: _290  and  _292
REMARK  115  A    between atoms: _292  and  _293
REMARK  116  A    between atoms: _292  and  _295
REMARK  117  A    between atoms: _295  and  _296
REMARK  118  A    between atoms: _299  and  _301
REMARK  119  A    between atoms: _301  and  _302
REMARK  120  A    between atoms: _301  and  _304
REMARK  121  A    between atoms: _304  and  _305
REMARK  122  A    between atoms: _307  and  _309
REMARK  123  A    between atoms: _309  and  _310
REMARK  124  A    between atoms: _309  and  _312
REMARK  125  A    between atoms: _312  and  _313
REMARK  126  A    between atoms: _313  and  _314
REMARK  127  A    between atoms: _314  and  _315
REMARK  128  A    between atoms: _324  and  _326
REMARK  129  A    between atoms: _326  and  _327
REMARK  130  A    between atoms: _329  and  _331
REMARK  131  A    between atoms: _331  and  _332
REMARK  132  A    between atoms: _331  and  _334
REMARK  133  A    between atoms: _337  and  _339
REMARK  134  A    between atoms: _339  and  _340
REMARK  135  A    between atoms: _339  and  _342
REMARK  136  A    between atoms: _342  and  _343
REMARK  137  A    between atoms: _346  and  _348
REMARK  138  A    between atoms: _348  and  _349
REMARK  139  A    between atoms: _351  and  _353
REMARK  140  A    between atoms: _353  and  _354
REMARK  141  A    between atoms: _353  and  _356
REMARK  142  A    between atoms: _356  and  _357
REMARK  143  A    between atoms: _360  and  _362
REMARK  144  A    between atoms: _362  and  _363
REMARK  145  A    between atoms: _362  and  _365
REMARK  146  A    between atoms: _365  and  _366
REMARK  147  A    between atoms: _366  and  _367
REMARK  148  A    between atoms: _372  and  _374
REMARK  149  A    between atoms: _374  and  _375
REMARK  150  A    between atoms: _377  and  _379
REMARK  151  A    between atoms: _379  and  _380
REMARK  152  A    between atoms: _379  and  _382
REMARK  153  A    between atoms: _382  and  _383
REMARK  154  A    between atoms: _389  and  _391
REMARK  155  A    between atoms: _391  and  _392
REMARK  156  A    between atoms: _394  and  _396
REMARK  157  A    between atoms: _396  and  _397
REMARK  158  A    between atoms: _396  and  _399
REMARK  159  A    between atoms: _399  and  _400
REMARK  160  A    between atoms: _403  and  _405
REMARK  161  A    between atoms: _405  and  _406
REMARK  162  A    between atoms: _405  and  _408
REMARK  163  A    between atoms: _408  and  _409
REMARK  164  A    between atoms: _411  and  _413
REMARK  165  A    between atoms: _413  and  _414
REMARK  166  A    between atoms: _413  and  _416
REMARK  167  A    between atoms: _416  and  _417
REMARK  168  A    between atoms: _417  and  _418
REMARK  169  A    between atoms: _423  and  _425
REMARK  170  A    between atoms: _425  and  _426
REMARK  171  A    between atoms: _429  and  _431
REMARK  172  A    between atoms: _431  and  _432
REMARK  173  A    between atoms: _431  and  _434
REMARK  174  A    between atoms: _434  and  _435
REMARK  175  A    between atoms: _438  and  _440
REMARK  176  A    between atoms: _440  and  _441
REMARK  177  A    between atoms: _440  and  _443
REMARK  178  A    between atoms: _443  and  _444
REMARK  179  A    between atoms: _446  and  _448
REMARK  180  A    between atoms: _448  and  _449
REMARK  181  A    between atoms: _451  and  _453
REMARK  182  A    between atoms: _453  and  _454
REMARK  183  A    between atoms: _453  and  _456
REMARK  184  A    between atoms: _456  and  _457
REMARK  185  A    between atoms: _459  and  _461
REMARK  186  A    between atoms: _461  and  _462
REMARK  187  A    between atoms: _465  and  _467
REMARK  188  A    between atoms: _467  and  _468
REMARK  189  A    between atoms: _467  and  _470
REMARK  190  A    between atoms: _470  and  _471
REMARK  191  A    between atoms: _474  and  _476
REMARK  192  A    between atoms: _476  and  _477
REMARK  193  A    between atoms: _476  and  _479
REMARK  194  A    between atoms: _482  and  _484
REMARK  195  A    between atoms: _484  and  _485
REMARK  196  A    between atoms: _488  and  _490
REMARK  197  A    between atoms: _490  and  _491
REMARK  198  A    between atoms: _490  and  _493
REMARK  199  A    between atoms: _497  and  _498
REMARK  200  A    between atoms: _503  and  _505
REMARK  201  A    between atoms: _505  and  _506
REMARK  202  A    between atoms: _505  and  _508
REMARK  203  A    between atoms: _508  and  _509
REMARK  204  A    between atoms: _509  and  _510
REMARK  205  A    between atoms: _515  and  _517
REMARK  206  A    between atoms: _517  and  _518
REMARK  207  A    between atoms: _517  and  _520
REMARK  208  A    between atoms: _520  and  _521
REMARK  209  A    between atoms: _524  and  _526
REMARK  210  A    between atoms: _526  and  _527
REMARK  211  A    between atoms: _526  and  _529
REMARK  212  A    between atoms: _529  and  _530
REMARK  213  A    between atoms: _533  and  _535
REMARK  214  A    between atoms: _535  and  _536
REMARK  215  A    between atoms: _535  and  _538
REMARK  216  A    between atoms: _538  and  _539
REMARK                            x       y       z     vdW  Elec       q    Type
REMARK                         _______ _______ _______ _____ _____    ______ ____
ROOT
ATOM      1  O   HOH     1      54.871  31.676  18.793  0.00  0.00    +0.000 OA
ENDROOT
TORSDOF 0
REMARK  Name = ../refined-set-2016/2cli/2cli_pocket.pdb
REMARK  216 active torsions:
REMARK  status: ('A' for Active; 'I' for Inactive)
REMARK    1  A    between atoms: _1  and  _3
REMARK    2  A    between atoms: _3  and  _4
REMARK    3  A    between atoms: _3  and  _6
REMARK    4  A    between atoms: _10  and  _11
REMARK    5  A    between atoms: _16  and  _18
REMARK    6  A    between atoms: _18  and  _19
REMARK    7  A    between atoms: _18  and  _21
REMARK    8  A    between atoms: _21  and  _22
REMARK    9  A    between atoms: _28  and  _30
REMARK   10  A    between atoms: _30  and  _31
REMARK   11  A    between atoms: _30  and  _33
REMARK   12  A    between atoms: _36  and  _38
REMARK   13  A    between atoms: _38  and  _39
REMARK   14  A    between atoms: _38  and  _41
REMARK   15  A    between atoms: _41  and  _42
REMARK   16  A    between atoms: _45  and  _47
REMARK   17  A    between atoms: _47  and  _48
REMARK   18  A    between atoms: _47  and  _50
REMARK   19  A    between atoms: _50  and  _51
REMARK   20  A    between atoms: _54  and  _56
REMARK   21  A    between atoms: _56  and  _57
REMARK   22  A    between atoms: _56  and  _59
REMARK   23  A    between atoms: _59  and  _60
REMARK   24  A    between atoms: _60  and  _61
REMARK   25  A    between atoms: _64  and  _66
REMARK   26  A    between atoms: _66  and  _67
REMARK   27  A    between atoms: _66  and  _69
REMARK   28  A    between atoms: _69  and  _70
REMARK   29  A    between atoms: _73  and  _75
REMARK   30  A    between atoms: _75  and  _76
REMARK   31  A    between atoms: _78  and  _80
REMARK   32  A    between atoms: _80  and  _81
REMARK   33  A    between atoms: _80  and  _83
REMARK   34  A    between atoms: _83  and  _84
REMARK   35  A    between atoms: _87  and  _89
REMARK   36  A    between atoms: _89  and  _90
REMARK   37  A    between atoms: _93  and  _95
REMARK   38  A    between atoms: _95  and  _96
REMARK   39  A    between atoms: _95  and  _98
REMARK   40  A    between atoms: _98  and  _99
REMARK   41  A    between atoms: _102  and  _104
REMARK   42  A    between atoms: _104  and  _105
REMARK   43  A    between atoms: _107  and  _109
REMARK   44  A    between atoms: _109  and  _110
REMARK   45  A    between atoms: _109  and  _112
REMARK   46  A    between atoms: _112  and  _113
REMARK   47  A    between atoms: _116  and  _118
REMARK   48  A    between atoms: _118  and  _119
REMARK   49  A    between atoms: _118  and  _121
REMARK   50  A    between atoms: _121  and  _122
REMARK   51  A    between atoms: _125  and  _127
REMARK   52  A    between atoms: _127  and  _128
REMARK   53  A    between atoms: _130  and  _132
REMARK   54  A    between atoms: _132  and  _133
REMARK   55  A    between atoms: _132  and  _135
REMARK   56  A    between atoms: _135  and  _136
REMARK   57  A    between atoms: _139  and  _141
REMARK   58  A    between atoms: _141  and  _142
REMARK   59  A    between atoms: _141  and  _144
REMARK   60  A    between atoms: _144  and  _145
REMARK   61  A    between atoms: _148  and  _150
REMARK   62  A    between atoms: _150  and  _151
REMARK   63  A    between atoms: _150  and  _153
REMARK   64  A    between atoms: _153  and  _154
REMARK   65  A    between atoms: _154  and  _155
REMARK   66  A    between atoms: _157  and  _159
REMARK   67  A    between atoms: _159  and  _160
REMARK   68  A    between atoms: _159  and  _162
REMARK   69  A    between atoms: _162  and  _163
REMARK   70  A    between atoms: _168  and  _169
REMARK   71  A    between atoms: _171  and  _173
REMARK   72  A    between atoms: _173  and  _174
REMARK   73  A    between atoms: _173  and  _176
REMARK   74  A    between atoms: _176  and  _177
REMARK   75  A    between atoms: _180  and  _182
REMARK   76  A    between atoms: _182  and  _183
REMARK   77  A    between atoms: _182  and  _185
REMARK   78  A    between atoms: _188  and  _190
REMARK   79  A    between atoms: _190  and  _191
REMARK   80  A    between atoms: _194  and  _196
REMARK   81  A    between atoms: _196  and  _197
REMARK   82  A    between atoms: _196  and  _199
REMARK   83  A    between atoms: _199  and  _200
REMARK   84  A    between atoms: _203  and  _205
REMARK   85  A    between atoms: _205  and  _206
REMARK   86  A    between atoms: _205  and  _208
REMARK   87  A    between atoms: _212  and  _213
REMARK   88  A    between atoms: _218  and  _220
REMARK   89  A    between atoms: _220  and  _221
REMARK   90  A    between atoms: _220  and  _223
REMARK   91  A    between atoms: _223  and  _224
REMARK   92  A    between atoms: _227  and  _229
REMARK   93  A    between atoms: _229  and  _230
REMARK   94  A    between atoms: _229  and  _232
REMARK   95  A    between atoms: _232  and  _233
REMARK   96  A    between atoms: _239  and  _241
REMARK   97  A    between atoms: _241  and  _242
REMARK   98  A    between atoms: _241  and  _244
REMARK   99  A    between atoms: _244  and  _245
REMARK  100  A    between atoms: _248  and  _250
REMARK  101  A    between atoms: _250  and  _251
REMARK  102  A    between atoms: _250  and  _253
REMARK  103  A    between atoms: _256  and  _257
REMARK  104  A    between atoms: _262  and  _264
REMARK  105  A    between atoms: _264  and  _265
REMARK  106  A    between atoms: _264  and  _267
REMARK  107  A    between atoms: _267  and  _268
REMARK  108  A    between atoms: _273  and  _274
REMARK  109  A    between atoms: _276  and  _278
REMARK  110  A    between atoms: _278  and  _279
REMARK  111  A    between atoms: _278  and  _281
REMARK  112  A    between atoms: _281  and  _282
REMARK  113  A    between atoms: _287  and  _288
REMARK  114  A    between atoms: _290  and  _292
REMARK  115  A    between atoms: _292  and  _293
REMARK  116  A    between atoms: _292  and  _295
REMARK  117  A    between atoms: _295  and  _296
REMARK  118  A    between atoms: _299  and  _301
REMARK  119  A    between atoms: _301  and  _302
REMARK  120  A    between atoms: _301  and  _304
REMARK  121  A    between atoms: _304  and  _305
REMARK  122  A    between atoms: _307  and  _309
REMARK  123  A    between atoms: _309  and  _310
REMARK  124  A    between atoms: _309  and  _312
REMARK  125  A    between atoms: _312  and  _313
REMARK  126  A    between atoms: _313  and  _314
REMARK  127  A    between atoms: _314  and  _315
REMARK  128  A    between atoms: _324  and  _326
REMARK  129  A    between atoms: _326  and  _327
REMARK  130  A    between atoms: _329  and  _331
REMARK  131  A    between atoms: _331  and  _332
REMARK  132  A    between atoms: _331  and  _334
REMARK  133  A    between atoms: _337  and  _339
REMARK  134  A    between atoms: _339  and  _340
REMARK  135  A    between atoms: _339  and  _342
REMARK  136  A    between atoms: _342  and  _343
REMARK  137  A    between atoms: _346  and  _348
REMARK  138  A    between atoms: _348  and  _349
REMARK  139  A    between atoms: _351  and  _353
REMARK  140  A    between atoms: _353  and  _354
REMARK  141  A    between atoms: _353  and  _356
REMARK  142  A    between atoms: _356  and  _357
REMARK  143  A    between atoms: _360  and  _362
REMARK  144  A    between atoms: _362  and  _363
REMARK  145  A    between atoms: _362  and  _365
REMARK  146  A    between atoms: _365  and  _366
REMARK  147  A    between atoms: _366  and  _367
REMARK  148  A    between atoms: _372  and  _374
REMARK  149  A    between atoms: _374  and  _375
REMARK  150  A    between atoms: _377  and  _379
REMARK  151  A    between atoms: _379  and  _380
REMARK  152  A    between atoms: _379  and  _382
REMARK  153  A    between atoms: _382  and  _383
REMARK  154  A    between atoms: _389  and  _391
REMARK  155  A    between atoms: _391  and  _392
REMARK  156  A    between atoms: _394  and  _396
REMARK  157  A    between atoms: _396  and  _397
REMARK  158  A    between atoms: _396  and  _399
REMARK  159  A    between atoms: _399  and  _400
REMARK  160  A    between atoms: _403  and  _405
REMARK  161  A    between atoms: _405  and  _406
REMARK  162  A    between atoms: _405  and  _408
REMARK  163  A    between atoms: _408  and  _409
REMARK  164  A    between atoms: _411  and  _413
REMARK  165  A    between atoms: _413  and  _414
REMARK  166  A    between atoms: _413  and  _416
REMARK  167  A    between atoms: _416  and  _417
REMARK  168  A    between atoms: _417  and  _418
REMARK  169  A    between atoms: _423  and  _425
REMARK  170  A    between atoms: _425  and  _426
REMARK  171  A    between atoms: _429  and  _431
REMARK  172  A    between atoms: _431  and  _432
REMARK  173  A    between atoms: _431  and  _434
REMARK  174  A    between atoms: _434  and  _435
REMARK  175  A    between atoms: _438  and  _440
REMARK  176  A    between atoms: _440  and  _441
REMARK  177  A    between atoms: _440  and  _443
REMARK  178  A    between atoms: _443  and  _444
REMARK  179  A    between atoms: _446  and  _448
REMARK  180  A    between atoms: _448  and  _449
REMARK  181  A    between atoms: _451  and  _453
REMARK  182  A    between atoms: _453  and  _454
REMARK  183  A    between atoms: _453  and  _456
REMARK  184  A    between atoms: _456  and  _457
REMARK  185  A    between atoms: _459  and  _461
REMARK  186  A    between atoms: _461  and  _462
REMARK  187  A    between atoms: _465  and  _467
REMARK  188  A    between atoms: _467  and  _468
REMARK  189  A    between atoms: _467  and  _470
REMARK  190  A    between atoms: _470  and  _471
REMARK  191  A    between atoms: _474  and  _476
REMARK  192  A    between atoms: _476  and  _477
REMARK  193  A    between atoms: _476  and  _479
REMARK  194  A    between atoms: _482  and  _484
REMARK  195  A    between atoms: _484  and  _485
REMARK  196  A    between atoms: _488  and  _490
REMARK  197  A    between atoms: _490  and  _491
REMARK  198  A    between atoms: _490  and  _493
REMARK  199  A    between atoms: _497  and  _498
REMARK  200  A    between atoms: _503  and  _505
REMARK  201  A    between atoms: _505  and  _506
REMARK  202  A    between atoms: _505  and  _508
REMARK  203  A    between atoms: _508  and  _509
REMARK  204  A    between atoms: _509  and  _510
REMARK  205  A    between atoms: _515  and  _517
REMARK  206  A    between atoms: _517  and  _518
REMARK  207  A    between atoms: _517  and  _520
REMARK  208  A    between atoms: _520  and  _521
REMARK  209  A    between atoms: _524  and  _526
REMARK  210  A    between atoms: _526  and  _527
REMARK  211  A    between atoms: _526  and  _529
REMARK  212  A    between atoms: _529  and  _530
REMARK  213  A    between atoms: _533  and  _535
REMARK  214  A    between atoms: _535  and  _536
REMARK  215  A    between atoms: _535  and  _538
REMARK  216  A    between atoms: _538  and  _539
REMARK                            x       y       z     vdW  Elec       q    Type
REMARK                         _______ _______ _______ _____ _____    ______ ____
ROOT
ATOM      1  O   HOH     1      46.000  24.791  22.636  0.00  0.00    +0.000 OA
ENDROOT
TORSDOF 0
REMARK  Name = ../refined-set-2016/2cli/2cli_pocket.pdb
REMARK  216 active torsions:
REMARK  status: ('A' for Active; 'I' for Inactive)
REMARK    1  A    between atoms: _1  and  _3
REMARK    2  A    between atoms: _3  and  _4
REMARK    3  A    between atoms: _3  and  _6
REMARK    4  A    between atoms: _10  and  _11
REMARK    5  A    between atoms: _16  and  _18
REMARK    6  A    between atoms: _18  and  _19
REMARK    7  A    between atoms: _18  and  _21
REMARK    8  A    between atoms: _21  and  _22
REMARK    9  A    between atoms: _28  and  _30
REMARK   10  A    between atoms: _30  and  _31
REMARK   11  A    between atoms: _30  and  _33
REMARK   12  A    between atoms: _36  and  _38
REMARK   13  A    between atoms: _38  and  _39
REMARK   14  A    between atoms: _38  and  _41
REMARK   15  A    between atoms: _41  and  _42
REMARK   16  A    between atoms: _45  and  _47
REMARK   17  A    between atoms: _47  and  _48
REMARK   18  A    between atoms: _47  and  _50
REMARK   19  A    between atoms: _50  and  _51
REMARK   20  A    between atoms: _54  and  _56
REMARK   21  A    between atoms: _56  and  _57
REMARK   22  A    between atoms: _56  and  _59
REMARK   23  A    between atoms: _59  and  _60
REMARK   24  A    between atoms: _60  and  _61
REMARK   25  A    between atoms: _64  and  _66
REMARK   26  A    between atoms: _66  and  _67
REMARK   27  A    between atoms: _66  and  _69
REMARK   28  A    between atoms: _69  and  _70
REMARK   29  A    between atoms: _73  and  _75
REMARK   30  A    between atoms: _75  and  _76
REMARK   31  A    between atoms: _78  and  _80
REMARK   32  A    between atoms: _80  and  _81
REMARK   33  A    between atoms: _80  and  _83
REMARK   34  A    between atoms: _83  and  _84
REMARK   35  A    between atoms: _87  and  _89
REMARK   36  A    between atoms: _89  and  _90
REMARK   37  A    between atoms: _93  and  _95
REMARK   38  A    between atoms: _95  and  _96
REMARK   39  A    between atoms: _95  and  _98
REMARK   40  A    between atoms: _98  and  _99
REMARK   41  A    between atoms: _102  and  _104
REMARK   42  A    between atoms: _104  and  _105
REMARK   43  A    between atoms: _107  and  _109
REMARK   44  A    between atoms: _109  and  _110
REMARK   45  A    between atoms: _109  and  _112
REMARK   46  A    between atoms: _112  and  _113
REMARK   47  A    between atoms: _116  and  _118
REMARK   48  A    between atoms: _118  and  _119
REMARK   49  A    between atoms: _118  and  _121
REMARK   50  A    between atoms: _121  and  _122
REMARK   51  A    between atoms: _125  and  _127
REMARK   52  A    between atoms: _127  and  _128
REMARK   53  A    between atoms: _130  and  _132
REMARK   54  A    between atoms: _132  and  _133
REMARK   55  A    between atoms: _132  and  _135
REMARK   56  A    between atoms: _135  and  _136
REMARK   57  A    between atoms: _139  and  _141
REMARK   58  A    between atoms: _141  and  _142
REMARK   59  A    between atoms: _141  and  _144
REMARK   60  A    between atoms: _144  and  _145
REMARK   61  A    between atoms: _148  and  _150
REMARK   62  A    between atoms: _150  and  _151
REMARK   63  A    between atoms: _150  and  _153
REMARK   64  A    between atoms: _153  and  _154
REMARK   65  A    between atoms: _154  and  _155
REMARK   66  A    between atoms: _157  and  _159
REMARK   67  A    between atoms: _159  and  _160
REMARK   68  A    between atoms: _159  and  _162
REMARK   69  A    between atoms: _162  and  _163
REMARK   70  A    between atoms: _168  and  _169
REMARK   71  A    between atoms: _171  and  _173
REMARK   72  A    between atoms: _173  and  _174
REMARK   73  A    between atoms: _173  and  _176
REMARK   74  A    between atoms: _176  and  _177
REMARK   75  A    between atoms: _180  and  _182
REMARK   76  A    between atoms: _182  and  _183
REMARK   77  A    between atoms: _182  and  _185
REMARK   78  A    between atoms: _188  and  _190
REMARK   79  A    between atoms: _190  and  _191
REMARK   80  A    between atoms: _194  and  _196
REMARK   81  A    between atoms: _196  and  _197
REMARK   82  A    between atoms: _196  and  _199
REMARK   83  A    between atoms: _199  and  _200
REMARK   84  A    between atoms: _203  and  _205
REMARK   85  A    between atoms: _205  and  _206
REMARK   86  A    between atoms: _205  and  _208
REMARK   87  A    between atoms: _212  and  _213
REMARK   88  A    between atoms: _218  and  _220
REMARK   89  A    between atoms: _220  and  _221
REMARK   90  A    between atoms: _220  and  _223
REMARK   91  A    between atoms: _223  and  _224
REMARK   92  A    between atoms: _227  and  _229
REMARK   93  A    between atoms: _229  and  _230
REMARK   94  A    between atoms: _229  and  _232
REMARK   95  A    between atoms: _232  and  _233
REMARK   96  A    between atoms: _239  and  _241
REMARK   97  A    between atoms: _241  and  _242
REMARK   98  A    between atoms: _241  and  _244
REMARK   99  A    between atoms: _244  and  _245
REMARK  100  A    between atoms: _248  and  _250
REMARK  101  A    between atoms: _250  and  _251
REMARK  102  A    between atoms: _250  and  _253
REMARK  103  A    between atoms: _256  and  _257
REMARK  104  A    between atoms: _262  and  _264
REMARK  105  A    between atoms: _264  and  _265
REMARK  106  A    between atoms: _264  and  _267
REMARK  107  A    between atoms: _267  and  _268
REMARK  108  A    between atoms: _273  and  _274
REMARK  109  A    between atoms: _276  and  _278
REMARK  110  A    between atoms: _278  and  _279
REMARK  111  A    between atoms: _278  and  _281
REMARK  112  A    between atoms: _281  and  _282
REMARK  113  A    between atoms: _287  and  _288
REMARK  114  A    between atoms: _290  and  _292
REMARK  115  A    between atoms: _292  and  _293
REMARK  116  A    between atoms: _292  and  _295
REMARK  117  A    between atoms: _295  and  _296
REMARK  118  A    between atoms: _299  and  _301
REMARK  119  A    between atoms: _301  and  _302
REMARK  120  A    between atoms: _301  and  _304
REMARK  121  A    between atoms: _304  and  _305
REMARK  122  A    between atoms: _307  and  _309
REMARK  123  A    between atoms: _309  and  _310
REMARK  124  A    between atoms: _309  and  _312
REMARK  125  A    between atoms: _312  and  _313
REMARK  126  A    between atoms: _313  and  _314
REMARK  127  A    between atoms: _314  and  _315
REMARK  128  A    between atoms: _324  and  _326
REMARK  129  A    between atoms: _326  and  _327
REMARK  130  A    between atoms: _329  and  _331
REMARK  131  A    between atoms: _331  and  _332
REMARK  132  A    between atoms: _331  and  _334
REMARK  133  A    between atoms: _337  and  _339
REMARK  134  A    between atoms: _339  and  _340
REMARK  135  A    between atoms: _339  and  _342
REMARK  136  A    between atoms: _342  and  _343
REMARK  137  A    between atoms: _346  and  _348
REMARK  138  A    between atoms: _348  and  _349
REMARK  139  A    between atoms: _351  and  _353
REMARK  140  A    between atoms: _353  and  _354
REMARK  141  A    between atoms: _353  and  _356
REMARK  142  A    between atoms: _356  and  _357
REMARK  143  A    between atoms: _360  and  _362
REMARK  144  A    between atoms: _362  and  _363
REMARK  145  A    between atoms: _362  and  _365
REMARK  146  A    between atoms: _365  and  _366
REMARK  147  A    between atoms: _366  and  _367
REMARK  148  A    between atoms: _372  and  _374
REMARK  149  A    between atoms: _374  and  _375
REMARK  150  A    between atoms: _377  and  _379
REMARK  151  A    between atoms: _379  and  _380
REMARK  152  A    between atoms: _379  and  _382
REMARK  153  A    between atoms: _382  and  _383
REMARK  154  A    between atoms: _389  and  _391
REMARK  155  A    between atoms: _391  and  _392
REMARK  156  A    between atoms: _394  and  _396
REMARK  157  A    between atoms: _396  and  _397
REMARK  158  A    between atoms: _396  and  _399
REMARK  159  A    between atoms: _399  and  _400
REMARK  160  A    between atoms: _403  and  _405
REMARK  161  A    between atoms: _405  and  _406
REMARK  162  A    between atoms: _405  and  _408
REMARK  163  A    between atoms: _408  and  _409
REMARK  164  A    between atoms: _411  and  _413
REMARK  165  A    between atoms: _413  and  _414
REMARK  166  A    between atoms: _413  and  _416
REMARK  167  A    between atoms: _416  and  _417
REMARK  168  A    between atoms: _417  and  _418
REMARK  169  A    between atoms: _423  and  _425
REMARK  170  A    between atoms: _425  and  _426
REMARK  171  A    between atoms: _429  and  _431
REMARK  172  A    between atoms: _431  and  _432
REMARK  173  A    between atoms: _431  and  _434
REMARK  174  A    between atoms: _434  and  _435
REMARK  175  A    between atoms: _438  and  _440
REMARK  176  A    between atoms: _440  and  _441
REMARK  177  A    between atoms: _440  and  _443
REMARK  178  A    between atoms: _443  and  _444
REMARK  179  A    between atoms: _446  and  _448
REMARK  180  A    between atoms: _448  and  _449
REMARK  181  A    between atoms: _451  and  _453
REMARK  182  A    between atoms: _453  and  _454
REMARK  183  A    between atoms: _453  and  _456
REMARK  184  A    between atoms: _456  and  _457
REMARK  185  A    between atoms: _459  and  _461
REMARK  186  A    between atoms: _461  and  _462
REMARK  187  A    between atoms: _465  and  _467
REMARK  188  A    between atoms: _467  and  _468
REMARK  189  A    between atoms: _467  and  _470
REMARK  190  A    between atoms: _470  and  _471
REMARK  191  A    between atoms: _474  and  _476
REMARK  192  A    between atoms: _476  and  _477
REMARK  193  A    between atoms: _476  and  _479
REMARK  194  A    between atoms: _482  and  _484
REMARK  195  A    between atoms: _484  and  _485
REMARK  196  A    between atoms: _488  and  _490
REMARK  197  A    between atoms: _490  and  _491
REMARK  198  A    between atoms: _490  and  _493
REMARK  199  A    between atoms: _497  and  _498
REMARK  200  A    between atoms: _503  and  _505
REMARK  201  A    between atoms: _505  and  _506
REMARK  202  A    between atoms: _505  and  _508
REMARK  203  A    between atoms: _508  and  _509
REMARK  204  A    between atoms: _509  and  _510
REMARK  205  A    between atoms: _515  and  _517
REMARK  206  A    between atoms: _517  and  _518
REMARK  207  A    between atoms: _517  and  _520
REMARK  208  A    between atoms: _520  and  _521
REMARK  209  A    between atoms: _524  and  _526
REMARK  210  A    between atoms: _526  and  _527
REMARK  211  A    between atoms: _526  and  _529
REMARK  212  A    between atoms: _529  and  _530
REMARK  213  A    between atoms: _533  and  _535
REMARK  214  A    between atoms: _535  and  _536
REMARK  215  A    between atoms: _535  and  _538
REMARK  216  A    between atoms: _538  and  _539
REMARK                            x       y       z     vdW  Elec       q    Type
REMARK                         _______ _______ _______ _____ _____    ______ ____
ROOT
ATOM      1  O   HOH     1      57.270  20.532  10.667  0.00  0.00    +0.000 OA
ENDROOT
TORSDOF 0
REMARK  Name = ../refined-set-2016/2cli/2cli_pocket.pdb
REMARK  216 active torsions:
REMARK  status: ('A' for Active; 'I' for Inactive)
REMARK    1  A    between atoms: _1  and  _3
REMARK    2  A    between atoms: _3  and  _4
REMARK    3  A    between atoms: _3  and  _6
REMARK    4  A    between atoms: _10  and  _11
REMARK    5  A    between atoms: _16  and  _18
REMARK    6  A    between atoms: _18  and  _19
REMARK    7  A    between atoms: _18  and  _21
REMARK    8  A    between atoms: _21  and  _22
REMARK    9  A    between atoms: _28  and  _30
REMARK   10  A    between atoms: _30  and  _31
REMARK   11  A    between atoms: _30  and  _33
REMARK   12  A    between atoms: _36  and  _38
REMARK   13  A    between atoms: _38  and  _39
REMARK   14  A    between atoms: _38  and  _41
REMARK   15  A    between atoms: _41  and  _42
REMARK   16  A    between atoms: _45  and  _47
REMARK   17  A    between atoms: _47  and  _48
REMARK   18  A    between atoms: _47  and  _50
REMARK   19  A    between atoms: _50  and  _51
REMARK   20  A    between atoms: _54  and  _56
REMARK   21  A    between atoms: _56  and  _57
REMARK   22  A    between atoms: _56  and  _59
REMARK   23  A    between atoms: _59  and  _60
REMARK   24  A    between atoms: _60  and  _61
REMARK   25  A    between atoms: _64  and  _66
REMARK   26  A    between atoms: _66  and  _67
REMARK   27  A    between atoms: _66  and  _69
REMARK   28  A    between atoms: _69  and  _70
REMARK   29  A    between atoms: _73  and  _75
REMARK   30  A    between atoms: _75  and  _76
REMARK   31  A    between atoms: _78  and  _80
REMARK   32  A    between atoms: _80  and  _81
REMARK   33  A    between atoms: _80  and  _83
REMARK   34  A    between atoms: _83  and  _84
REMARK   35  A    between atoms: _87  and  _89
REMARK   36  A    between atoms: _89  and  _90
REMARK   37  A    between atoms: _93  and  _95
REMARK   38  A    between atoms: _95  and  _96
REMARK   39  A    between atoms: _95  and  _98
REMARK   40  A    between atoms: _98  and  _99
REMARK   41  A    between atoms: _102  and  _104
REMARK   42  A    between atoms: _104  and  _105
REMARK   43  A    between atoms: _107  and  _109
REMARK   44  A    between atoms: _109  and  _110
REMARK   45  A    between atoms: _109  and  _112
REMARK   46  A    between atoms: _112  and  _113
REMARK   47  A    between atoms: _116  and  _118
REMARK   48  A    between atoms: _118  and  _119
REMARK   49  A    between atoms: _118  and  _121
REMARK   50  A    between atoms: _121  and  _122
REMARK   51  A    between atoms: _125  and  _127
REMARK   52  A    between atoms: _127  and  _128
REMARK   53  A    between atoms: _130  and  _132
REMARK   54  A    between atoms: _132  and  _133
REMARK   55  A    between atoms: _132  and  _135
REMARK   56  A    between atoms: _135  and  _136
REMARK   57  A    between atoms: _139  and  _141
REMARK   58  A    between atoms: _141  and  _142
REMARK   59  A    between atoms: _141  and  _144
REMARK   60  A    between atoms: _144  and  _145
REMARK   61  A    between atoms: _148  and  _150
REMARK   62  A    between atoms: _150  and  _151
REMARK   63  A    between atoms: _150  and  _153
REMARK   64  A    between atoms: _153  and  _154
REMARK   65  A    between atoms: _154  and  _155
REMARK   66  A    between atoms: _157  and  _159
REMARK   67  A    between atoms: _159  and  _160
REMARK   68  A    between atoms: _159  and  _162
REMARK   69  A    between atoms: _162  and  _163
REMARK   70  A    between atoms: _168  and  _169
REMARK   71  A    between atoms: _171  and  _173
REMARK   72  A    between atoms: _173  and  _174
REMARK   73  A    between atoms: _173  and  _176
REMARK   74  A    between atoms: _176  and  _177
REMARK   75  A    between atoms: _180  and  _182
REMARK   76  A    between atoms: _182  and  _183
REMARK   77  A    between atoms: _182  and  _185
REMARK   78  A    between atoms: _188  and  _190
REMARK   79  A    between atoms: _190  and  _191
REMARK   80  A    between atoms: _194  and  _196
REMARK   81  A    between atoms: _196  and  _197
REMARK   82  A    between atoms: _196  and  _199
REMARK   83  A    between atoms: _199  and  _200
REMARK   84  A    between atoms: _203  and  _205
REMARK   85  A    between atoms: _205  and  _206
REMARK   86  A    between atoms: _205  and  _208
REMARK   87  A    between atoms: _212  and  _213
REMARK   88  A    between atoms: _218  and  _220
REMARK   89  A    between atoms: _220  and  _221
REMARK   90  A    between atoms: _220  and  _223
REMARK   91  A    between atoms: _223  and  _224
REMARK   92  A    between atoms: _227  and  _229
REMARK   93  A    between atoms: _229  and  _230
REMARK   94  A    between atoms: _229  and  _232
REMARK   95  A    between atoms: _232  and  _233
REMARK   96  A    between atoms: _239  and  _241
REMARK   97  A    between atoms: _241  and  _242
REMARK   98  A    between atoms: _241  and  _244
REMARK   99  A    between atoms: _244  and  _245
REMARK  100  A    between atoms: _248  and  _250
REMARK  101  A    between atoms: _250  and  _251
REMARK  102  A    between atoms: _250  and  _253
REMARK  103  A    between atoms: _256  and  _257
REMARK  104  A    between atoms: _262  and  _264
REMARK  105  A    between atoms: _264  and  _265
REMARK  106  A    between atoms: _264  and  _267
REMARK  107  A    between atoms: _267  and  _268
REMARK  108  A    between atoms: _273  and  _274
REMARK  109  A    between atoms: _276  and  _278
REMARK  110  A    between atoms: _278  and  _279
REMARK  111  A    between atoms: _278  and  _281
REMARK  112  A    between atoms: _281  and  _282
REMARK  113  A    between atoms: _287  and  _288
REMARK  114  A    between atoms: _290  and  _292
REMARK  115  A    between atoms: _292  and  _293
REMARK  116  A    between atoms: _292  and  _295
REMARK  117  A    between atoms: _295  and  _296
REMARK  118  A    between atoms: _299  and  _301
REMARK  119  A    between atoms: _301  and  _302
REMARK  120  A    between atoms: _301  and  _304
REMARK  121  A    between atoms: _304  and  _305
REMARK  122  A    between atoms: _307  and  _309
REMARK  123  A    between atoms: _309  and  _310
REMARK  124  A    between atoms: _309  and  _312
REMARK  125  A    between atoms: _312  and  _313
REMARK  126  A    between atoms: _313  and  _314
REMARK  127  A    between atoms: _314  and  _315
REMARK  128  A    between atoms: _324  and  _326
REMARK  129  A    between atoms: _326  and  _327
REMARK  130  A    between atoms: _329  and  _331
REMARK  131  A    between atoms: _331  and  _332
REMARK  132  A    between atoms: _331  and  _334
REMARK  133  A    between atoms: _337  and  _339
REMARK  134  A    between atoms: _339  and  _340
REMARK  135  A    between atoms: _339  and  _342
REMARK  136  A    between atoms: _342  and  _343
REMARK  137  A    between atoms: _346  and  _348
REMARK  138  A    between atoms: _348  and  _349
REMARK  139  A    between atoms: _351  and  _353
REMARK  140  A    between atoms: _353  and  _354
REMARK  141  A    between atoms: _353  and  _356
REMARK  142  A    between atoms: _356  and  _357
REMARK  143  A    between atoms: _360  and  _362
REMARK  144  A    between atoms: _362  and  _363
REMARK  145  A    between atoms: _362  and  _365
REMARK  146  A    between atoms: _365  and  _366
REMARK  147  A    between atoms: _366  and  _367
REMARK  148  A    between atoms: _372  and  _374
REMARK  149  A    between atoms: _374  and  _375
REMARK  150  A    between atoms: _377  and  _379
REMARK  151  A    between atoms: _379  and  _380
REMARK  152  A    between atoms: _379  and  _382
REMARK  153  A    between atoms: _382  and  _383
REMARK  154  A    between atoms: _389  and  _391
REMARK  155  A    between atoms: _391  and  _392
REMARK  156  A    between atoms: _394  and  _396
REMARK  157  A    between atoms: _396  and  _397
REMARK  158  A    between atoms: _396  and  _399
REMARK  159  A    between atoms: _399  and  _400
REMARK  160  A    between atoms: _403  and  _405
REMARK  161  A    between atoms: _405  and  _406
REMARK  162  A    between atoms: _405  and  _408
REMARK  163  A    between atoms: _408  and  _409
REMARK  164  A    between atoms: _411  and  _413
REMARK  165  A    between atoms: _413  and  _414
REMARK  166  A    between atoms: _413  and  _416
REMARK  167  A    between atoms: _416  and  _417
REMARK  168  A    between atoms: _417  and  _418
REMARK  169  A    between atoms: _423  and  _425
REMARK  170  A    between atoms: _425  and  _426
REMARK  171  A    between atoms: _429  and  _431
REMARK  172  A    between atoms: _431  and  _432
REMARK  173  A    between atoms: _431  and  _434
REMARK  174  A    between atoms: _434  and  _435
REMARK  175  A    between atoms: _438  and  _440
REMARK  176  A    between atoms: _440  and  _441
REMARK  177  A    between atoms: _440  and  _443
REMARK  178  A    between atoms: _443  and  _444
REMARK  179  A    between atoms: _446  and  _448
REMARK  180  A    between atoms: _448  and  _449
REMARK  181  A    between atoms: _451  and  _453
REMARK  182  A    between atoms: _453  and  _454
REMARK  183  A    between atoms: _453  and  _456
REMARK  184  A    between atoms: _456  and  _457
REMARK  185  A    between atoms: _459  and  _461
REMARK  186  A    between atoms: _461  and  _462
REMARK  187  A    between atoms: _465  and  _467
REMARK  188  A    between atoms: _467  and  _468
REMARK  189  A    between atoms: _467  and  _470
REMARK  190  A    between atoms: _470  and  _471
REMARK  191  A    between atoms: _474  and  _476
REMARK  192  A    between atoms: _476  and  _477
REMARK  193  A    between atoms: _476  and  _479
REMARK  194  A    between atoms: _482  and  _484
REMARK  195  A    between atoms: _484  and  _485
REMARK  196  A    between atoms: _488  and  _490
REMARK  197  A    between atoms: _490  and  _491
REMARK  198  A    between atoms: _490  and  _493
REMARK  199  A    between atoms: _497  and  _498
REMARK  200  A    between atoms: _503  and  _505
REMARK  201  A    between atoms: _505  and  _506
REMARK  202  A    between atoms: _505  and  _508
REMARK  203  A    between atoms: _508  and  _509
REMARK  204  A    between atoms: _509  and  _510
REMARK  205  A    between atoms: _515  and  _517
REMARK  206  A    between atoms: _517  and  _518
REMARK  207  A    between atoms: _517  and  _520
REMARK  208  A    between atoms: _520  and  _521
REMARK  209  A    between atoms: _524  and  _526
REMARK  210  A    between atoms: _526  and  _527
REMARK  211  A    between atoms: _526  and  _529
REMARK  212  A    between atoms: _529  and  _530
REMARK  213  A    between atoms: _533  and  _535
REMARK  214  A    between atoms: _535  and  _536
REMARK  215  A    between atoms: _535  and  _538
REMARK  216  A    between atoms: _538  and  _539
REMARK                            x       y       z     vdW  Elec       q    Type
REMARK                         _______ _______ _______ _____ _____    ______ ____
ROOT
ATOM      1  O   HOH     1      51.540  28.808  15.023  0.00  0.00    +0.000 OA
ENDROOT
TORSDOF 0
REMARK  Name = ../refined-set-2016/2cli/2cli_pocket.pdb
REMARK  216 active torsions:
REMARK  status: ('A' for Active; 'I' for Inactive)
REMARK    1  A    between atoms: _1  and  _3
REMARK    2  A    between atoms: _3  and  _4
REMARK    3  A    between atoms: _3  and  _6
REMARK    4  A    between atoms: _10  and  _11
REMARK    5  A    between atoms: _16  and  _18
REMARK    6  A    between atoms: _18  and  _19
REMARK    7  A    between atoms: _18  and  _21
REMARK    8  A    between atoms: _21  and  _22
REMARK    9  A    between atoms: _28  and  _30
REMARK   10  A    between atoms: _30  and  _31
REMARK   11  A    between atoms: _30  and  _33
REMARK   12  A    between atoms: _36  and  _38
REMARK   13  A    between atoms: _38  and  _39
REMARK   14  A    between atoms: _38  and  _41
REMARK   15  A    between atoms: _41  and  _42
REMARK   16  A    between atoms: _45  and  _47
REMARK   17  A    between atoms: _47  and  _48
REMARK   18  A    between atoms: _47  and  _50
REMARK   19  A    between atoms: _50  and  _51
REMARK   20  A    between atoms: _54  and  _56
REMARK   21  A    between atoms: _56  and  _57
REMARK   22  A    between atoms: _56  and  _59
REMARK   23  A    between atoms: _59  and  _60
REMARK   24  A    between atoms: _60  and  _61
REMARK   25  A    between atoms: _64  and  _66
REMARK   26  A    between atoms: _66  and  _67
REMARK   27  A    between atoms: _66  and  _69
REMARK   28  A    between atoms: _69  and  _70
REMARK   29  A    between atoms: _73  and  _75
REMARK   30  A    between atoms: _75  and  _76
REMARK   31  A    between atoms: _78  and  _80
REMARK   32  A    between atoms: _80  and  _81
REMARK   33  A    between atoms: _80  and  _83
REMARK   34  A    between atoms: _83  and  _84
REMARK   35  A    between atoms: _87  and  _89
REMARK   36  A    between atoms: _89  and  _90
REMARK   37  A    between atoms: _93  and  _95
REMARK   38  A    between atoms: _95  and  _96
REMARK   39  A    between atoms: _95  and  _98
REMARK   40  A    between atoms: _98  and  _99
REMARK   41  A    between atoms: _102  and  _104
REMARK   42  A    between atoms: _104  and  _105
REMARK   43  A    between atoms: _107  and  _109
REMARK   44  A    between atoms: _109  and  _110
REMARK   45  A    between atoms: _109  and  _112
REMARK   46  A    between atoms: _112  and  _113
REMARK   47  A    between atoms: _116  and  _118
REMARK   48  A    between atoms: _118  and  _119
REMARK   49  A    between atoms: _118  and  _121
REMARK   50  A    between atoms: _121  and  _122
REMARK   51  A    between atoms: _125  and  _127
REMARK   52  A    between atoms: _127  and  _128
REMARK   53  A    between atoms: _130  and  _132
REMARK   54  A    between atoms: _132  and  _133
REMARK   55  A    between atoms: _132  and  _135
REMARK   56  A    between atoms: _135  and  _136
REMARK   57  A    between atoms: _139  and  _141
REMARK   58  A    between atoms: _141  and  _142
REMARK   59  A    between atoms: _141  and  _144
REMARK   60  A    between atoms: _144  and  _145
REMARK   61  A    between atoms: _148  and  _150
REMARK   62  A    between atoms: _150  and  _151
REMARK   63  A    between atoms: _150  and  _153
REMARK   64  A    between atoms: _153  and  _154
REMARK   65  A    between atoms: _154  and  _155
REMARK   66  A    between atoms: _157  and  _159
REMARK   67  A    between atoms: _159  and  _160
REMARK   68  A    between atoms: _159  and  _162
REMARK   69  A    between atoms: _162  and  _163
REMARK   70  A    between atoms: _168  and  _169
REMARK   71  A    between atoms: _171  and  _173
REMARK   72  A    between atoms: _173  and  _174
REMARK   73  A    between atoms: _173  and  _176
REMARK   74  A    between atoms: _176  and  _177
REMARK   75  A    between atoms: _180  and  _182
REMARK   76  A    between atoms: _182  and  _183
REMARK   77  A    between atoms: _182  and  _185
REMARK   78  A    between atoms: _188  and  _190
REMARK   79  A    between atoms: _190  and  _191
REMARK   80  A    between atoms: _194  and  _196
REMARK   81  A    between atoms: _196  and  _197
REMARK   82  A    between atoms: _196  and  _199
REMARK   83  A    between atoms: _199  and  _200
REMARK   84  A    between atoms: _203  and  _205
REMARK   85  A    between atoms: _205  and  _206
REMARK   86  A    between atoms: _205  and  _208
REMARK   87  A    between atoms: _212  and  _213
REMARK   88  A    between atoms: _218  and  _220
REMARK   89  A    between atoms: _220  and  _221
REMARK   90  A    between atoms: _220  and  _223
REMARK   91  A    between atoms: _223  and  _224
REMARK   92  A    between atoms: _227  and  _229
REMARK   93  A    between atoms: _229  and  _230
REMARK   94  A    between atoms: _229  and  _232
REMARK   95  A    between atoms: _232  and  _233
REMARK   96  A    between atoms: _239  and  _241
REMARK   97  A    between atoms: _241  and  _242
REMARK   98  A    between atoms: _241  and  _244
REMARK   99  A    between atoms: _244  and  _245
REMARK  100  A    between atoms: _248  and  _250
REMARK  101  A    between atoms: _250  and  _251
REMARK  102  A    between atoms: _250  and  _253
REMARK  103  A    between atoms: _256  and  _257
REMARK  104  A    between atoms: _262  and  _264
REMARK  105  A    between atoms: _264  and  _265
REMARK  106  A    between atoms: _264  and  _267
REMARK  107  A    between atoms: _267  and  _268
REMARK  108  A    between atoms: _273  and  _274
REMARK  109  A    between atoms: _276  and  _278
REMARK  110  A    between atoms: _278  and  _279
REMARK  111  A    between atoms: _278  and  _281
REMARK  112  A    between atoms: _281  and  _282
REMARK  113  A    between atoms: _287  and  _288
REMARK  114  A    between atoms: _290  and  _292
REMARK  115  A    between atoms: _292  and  _293
REMARK  116  A    between atoms: _292  and  _295
REMARK  117  A    between atoms: _295  and  _296
REMARK  118  A    between atoms: _299  and  _301
REMARK  119  A    between atoms: _301  and  _302
REMARK  120  A    between atoms: _301  and  _304
REMARK  121  A    between atoms: _304  and  _305
REMARK  122  A    between atoms: _307  and  _309
REMARK  123  A    between atoms: _309  and  _310
REMARK  124  A    between atoms: _309  and  _312
REMARK  125  A    between atoms: _312  and  _313
REMARK  126  A    between atoms: _313  and  _314
REMARK  127  A    between atoms: _314  and  _315
REMARK  128  A    between atoms: _324  and  _326
REMARK  129  A    between atoms: _326  and  _327
REMARK  130  A    between atoms: _329  and  _331
REMARK  131  A    between atoms: _331  and  _332
REMARK  132  A    between atoms: _331  and  _334
REMARK  133  A    between atoms: _337  and  _339
REMARK  134  A    between atoms: _339  and  _340
REMARK  135  A    between atoms: _339  and  _342
REMARK  136  A    between atoms: _342  and  _343
REMARK  137  A    between atoms: _346  and  _348
REMARK  138  A    between atoms: _348  and  _349
REMARK  139  A    between atoms: _351  and  _353
REMARK  140  A    between atoms: _353  and  _354
REMARK  141  A    between atoms: _353  and  _356
REMARK  142  A    between atoms: _356  and  _357
REMARK  143  A    between atoms: _360  and  _362
REMARK  144  A    between atoms: _362  and  _363
REMARK  145  A    between atoms: _362  and  _365
REMARK  146  A    between atoms: _365  and  _366
REMARK  147  A    between atoms: _366  and  _367
REMARK  148  A    between atoms: _372  and  _374
REMARK  149  A    between atoms: _374  and  _375
REMARK  150  A    between atoms: _377  and  _379
REMARK  151  A    between atoms: _379  and  _380
REMARK  152  A    between atoms: _379  and  _382
REMARK  153  A    between atoms: _382  and  _383
REMARK  154  A    between atoms: _389  and  _391
REMARK  155  A    between atoms: _391  and  _392
REMARK  156  A    between atoms: _394  and  _396
REMARK  157  A    between atoms: _396  and  _397
REMARK  158  A    between atoms: _396  and  _399
REMARK  159  A    between atoms: _399  and  _400
REMARK  160  A    between atoms: _403  and  _405
REMARK  161  A    between atoms: _405  and  _406
REMARK  162  A    between atoms: _405  and  _408
REMARK  163  A    between atoms: _408  and  _409
REMARK  164  A    between atoms: _411  and  _413
REMARK  165  A    between atoms: _413  and  _414
REMARK  166  A    between atoms: _413  and  _416
REMARK  167  A    between atoms: _416  and  _417
REMARK  168  A    between atoms: _417  and  _418
REMARK  169  A    between atoms: _423  and  _425
REMARK  170  A    between atoms: _425  and  _426
REMARK  171  A    between atoms: _429  and  _431
REMARK  172  A    between atoms: _431  and  _432
REMARK  173  A    between atoms: _431  and  _434
REMARK  174  A    between atoms: _434  and  _435
REMARK  175  A    between atoms: _438  and  _440
REMARK  176  A    between atoms: _440  and  _441
REMARK  177  A    between atoms: _440  and  _443
REMARK  178  A    between atoms: _443  and  _444
REMARK  179  A    between atoms: _446  and  _448
REMARK  180  A    between atoms: _448  and  _449
REMARK  181  A    between atoms: _451  and  _453
REMARK  182  A    between atoms: _453  and  _454
REMARK  183  A    between atoms: _453  and  _456
REMARK  184  A    between atoms: _456  and  _457
REMARK  185  A    between atoms: _459  and  _461
REMARK  186  A    between atoms: _461  and  _462
REMARK  187  A    between atoms: _465  and  _467
REMARK  188  A    between atoms: _467  and  _468
REMARK  189  A    between atoms: _467  and  _470
REMARK  190  A    between atoms: _470  and  _471
REMARK  191  A    between atoms: _474  and  _476
REMARK  192  A    between atoms: _476  and  _477
REMARK  193  A    between atoms: _476  and  _479
REMARK  194  A    between atoms: _482  and  _484
REMARK  195  A    between atoms: _484  and  _485
REMARK  196  A    between atoms: _488  and  _490
REMARK  197  A    between atoms: _490  and  _491
REMARK  198  A    between atoms: _490  and  _493
REMARK  199  A    between atoms: _497  and  _498
REMARK  200  A    between atoms: _503  and  _505
REMARK  201  A    between atoms: _505  and  _506
REMARK  202  A    between atoms: _505  and  _508
REMARK  203  A    between atoms: _508  and  _509
REMARK  204  A    between atoms: _509  and  _510
REMARK  205  A    between atoms: _515  and  _517
REMARK  206  A    between atoms: _517  and  _518
REMARK  207  A    between atoms: _517  and  _520
REMARK  208  A    between atoms: _520  and  _521
REMARK  209  A    between atoms: _524  and  _526
REMARK  210  A    between atoms: _526  and  _527
REMARK  211  A    between atoms: _526  and  _529
REMARK  212  A    between atoms: _529  and  _530
REMARK  213  A    between atoms: _533  and  _535
REMARK  214  A    between atoms: _535  and  _536
REMARK  215  A    between atoms: _535  and  _538
REMARK  216  A    between atoms: _538  and  _539
REMARK                            x       y       z     vdW  Elec       q    Type
REMARK                         _______ _______ _______ _____ _____    ______ ____
ROOT
ATOM      1  O   HOH     1      55.104  29.430  17.274  0.00  0.00    +0.000 OA
ENDROOT
TORSDOF 0
REMARK  Name = ../refined-set-2016/2cli/2cli_pocket.pdb
REMARK  216 active torsions:
REMARK  status: ('A' for Active; 'I' for Inactive)
REMARK    1  A    between atoms: _1  and  _3
REMARK    2  A    between atoms: _3  and  _4
REMARK    3  A    between atoms: _3  and  _6
REMARK    4  A    between atoms: _10  and  _11
REMARK    5  A    between atoms: _16  and  _18
REMARK    6  A    between atoms: _18  and  _19
REMARK    7  A    between atoms: _18  and  _21
REMARK    8  A    between atoms: _21  and  _22
REMARK    9  A    between atoms: _28  and  _30
REMARK   10  A    between atoms: _30  and  _31
REMARK   11  A    between atoms: _30  and  _33
REMARK   12  A    between atoms: _36  and  _38
REMARK   13  A    between atoms: _38  and  _39
REMARK   14  A    between atoms: _38  and  _41
REMARK   15  A    between atoms: _41  and  _42
REMARK   16  A    between atoms: _45  and  _47
REMARK   17  A    between atoms: _47  and  _48
REMARK   18  A    between atoms: _47  and  _50
REMARK   19  A    between atoms: _50  and  _51
REMARK   20  A    between atoms: _54  and  _56
REMARK   21  A    between atoms: _56  and  _57
REMARK   22  A    between atoms: _56  and  _59
REMARK   23  A    between atoms: _59  and  _60
REMARK   24  A    between atoms: _60  and  _61
REMARK   25  A    between atoms: _64  and  _66
REMARK   26  A    between atoms: _66  and  _67
REMARK   27  A    between atoms: _66  and  _69
REMARK   28  A    between atoms: _69  and  _70
REMARK   29  A    between atoms: _73  and  _75
REMARK   30  A    between atoms: _75  and  _76
REMARK   31  A    between atoms: _78  and  _80
REMARK   32  A    between atoms: _80  and  _81
REMARK   33  A    between atoms: _80  and  _83
REMARK   34  A    between atoms: _83  and  _84
REMARK   35  A    between atoms: _87  and  _89
REMARK   36  A    between atoms: _89  and  _90
REMARK   37  A    between atoms: _93  and  _95
REMARK   38  A    between atoms: _95  and  _96
REMARK   39  A    between atoms: _95  and  _98
REMARK   40  A    between atoms: _98  and  _99
REMARK   41  A    between atoms: _102  and  _104
REMARK   42  A    between atoms: _104  and  _105
REMARK   43  A    between atoms: _107  and  _109
REMARK   44  A    between atoms: _109  and  _110
REMARK   45  A    between atoms: _109  and  _112
REMARK   46  A    between atoms: _112  and  _113
REMARK   47  A    between atoms: _116  and  _118
REMARK   48  A    between atoms: _118  and  _119
REMARK   49  A    between atoms: _118  and  _121
REMARK   50  A    between atoms: _121  and  _122
REMARK   51  A    between atoms: _125  and  _127
REMARK   52  A    between atoms: _127  and  _128
REMARK   53  A    between atoms: _130  and  _132
REMARK   54  A    between atoms: _132  and  _133
REMARK   55  A    between atoms: _132  and  _135
REMARK   56  A    between atoms: _135  and  _136
REMARK   57  A    between atoms: _139  and  _141
REMARK   58  A    between atoms: _141  and  _142
REMARK   59  A    between atoms: _141  and  _144
REMARK   60  A    between atoms: _144  and  _145
REMARK   61  A    between atoms: _148  and  _150
REMARK   62  A    between atoms: _150  and  _151
REMARK   63  A    between atoms: _150  and  _153
REMARK   64  A    between atoms: _153  and  _154
REMARK   65  A    between atoms: _154  and  _155
REMARK   66  A    between atoms: _157  and  _159
REMARK   67  A    between atoms: _159  and  _160
REMARK   68  A    between atoms: _159  and  _162
REMARK   69  A    between atoms: _162  and  _163
REMARK   70  A    between atoms: _168  and  _169
REMARK   71  A    between atoms: _171  and  _173
REMARK   72  A    between atoms: _173  and  _174
REMARK   73  A    between atoms: _173  and  _176
REMARK   74  A    between atoms: _176  and  _177
REMARK   75  A    between atoms: _180  and  _182
REMARK   76  A    between atoms: _182  and  _183
REMARK   77  A    between atoms: _182  and  _185
REMARK   78  A    between atoms: _188  and  _190
REMARK   79  A    between atoms: _190  and  _191
REMARK   80  A    between atoms: _194  and  _196
REMARK   81  A    between atoms: _196  and  _197
REMARK   82  A    between atoms: _196  and  _199
REMARK   83  A    between atoms: _199  and  _200
REMARK   84  A    between atoms: _203  and  _205
REMARK   85  A    between atoms: _205  and  _206
REMARK   86  A    between atoms: _205  and  _208
REMARK   87  A    between atoms: _212  and  _213
REMARK   88  A    between atoms: _218  and  _220
REMARK   89  A    between atoms: _220  and  _221
REMARK   90  A    between atoms: _220  and  _223
REMARK   91  A    between atoms: _223  and  _224
REMARK   92  A    between atoms: _227  and  _229
REMARK   93  A    between atoms: _229  and  _230
REMARK   94  A    between atoms: _229  and  _232
REMARK   95  A    between atoms: _232  and  _233
REMARK   96  A    between atoms: _239  and  _241
REMARK   97  A    between atoms: _241  and  _242
REMARK   98  A    between atoms: _241  and  _244
REMARK   99  A    between atoms: _244  and  _245
REMARK  100  A    between atoms: _248  and  _250
REMARK  101  A    between atoms: _250  and  _251
REMARK  102  A    between atoms: _250  and  _253
REMARK  103  A    between atoms: _256  and  _257
REMARK  104  A    between atoms: _262  and  _264
REMARK  105  A    between atoms: _264  and  _265
REMARK  106  A    between atoms: _264  and  _267
REMARK  107  A    between atoms: _267  and  _268
REMARK  108  A    between atoms: _273  and  _274
REMARK  109  A    between atoms: _276  and  _278
REMARK  110  A    between atoms: _278  and  _279
REMARK  111  A    between atoms: _278  and  _281
REMARK  112  A    between atoms: _281  and  _282
REMARK  113  A    between atoms: _287  and  _288
REMARK  114  A    between atoms: _290  and  _292
REMARK  115  A    between atoms: _292  and  _293
REMARK  116  A    between atoms: _292  and  _295
REMARK  117  A    between atoms: _295  and  _296
REMARK  118  A    between atoms: _299  and  _301
REMARK  119  A    between atoms: _301  and  _302
REMARK  120  A    between atoms: _301  and  _304
REMARK  121  A    between atoms: _304  and  _305
REMARK  122  A    between atoms: _307  and  _309
REMARK  123  A    between atoms: _309  and  _310
REMARK  124  A    between atoms: _309  and  _312
REMARK  125  A    between atoms: _312  and  _313
REMARK  126  A    between atoms: _313  and  _314
REMARK  127  A    between atoms: _314  and  _315
REMARK  128  A    between atoms: _324  and  _326
REMARK  129  A    between atoms: _326  and  _327
REMARK  130  A    between atoms: _329  and  _331
REMARK  131  A    between atoms: _331  and  _332
REMARK  132  A    between atoms: _331  and  _334
REMARK  133  A    between atoms: _337  and  _339
REMARK  134  A    between atoms: _339  and  _340
REMARK  135  A    between atoms: _339  and  _342
REMARK  136  A    between atoms: _342  and  _343
REMARK  137  A    between atoms: _346  and  _348
REMARK  138  A    between atoms: _348  and  _349
REMARK  139  A    between atoms: _351  and  _353
REMARK  140  A    between atoms: _353  and  _354
REMARK  141  A    between atoms: _353  and  _356
REMARK  142  A    between atoms: _356  and  _357
REMARK  143  A    between atoms: _360  and  _362
REMARK  144  A    between atoms: _362  and  _363
REMARK  145  A    between atoms: _362  and  _365
REMARK  146  A    between atoms: _365  and  _366
REMARK  147  A    between atoms: _366  and  _367
REMARK  148  A    between atoms: _372  and  _374
REMARK  149  A    between atoms: _374  and  _375
REMARK  150  A    between atoms: _377  and  _379
REMARK  151  A    between atoms: _379  and  _380
REMARK  152  A    between atoms: _379  and  _382
REMARK  153  A    between atoms: _382  and  _383
REMARK  154  A    between atoms: _389  and  _391
REMARK  155  A    between atoms: _391  and  _392
REMARK  156  A    between atoms: _394  and  _396
REMARK  157  A    between atoms: _396  and  _397
REMARK  158  A    between atoms: _396  and  _399
REMARK  159  A    between atoms: _399  and  _400
REMARK  160  A    between atoms: _403  and  _405
REMARK  161  A    between atoms: _405  and  _406
REMARK  162  A    between atoms: _405  and  _408
REMARK  163  A    between atoms: _408  and  _409
REMARK  164  A    between atoms: _411  and  _413
REMARK  165  A    between atoms: _413  and  _414
REMARK  166  A    between atoms: _413  and  _416
REMARK  167  A    between atoms: _416  and  _417
REMARK  168  A    between atoms: _417  and  _418
REMARK  169  A    between atoms: _423  and  _425
REMARK  170  A    between atoms: _425  and  _426
REMARK  171  A    between atoms: _429  and  _431
REMARK  172  A    between atoms: _431  and  _432
REMARK  173  A    between atoms: _431  and  _434
REMARK  174  A    between atoms: _434  and  _435
REMARK  175  A    between atoms: _438  and  _440
REMARK  176  A    between atoms: _440  and  _441
REMARK  177  A    between atoms: _440  and  _443
REMARK  178  A    between atoms: _443  and  _444
REMARK  179  A    between atoms: _446  and  _448
REMARK  180  A    between atoms: _448  and  _449
REMARK  181  A    between atoms: _451  and  _453
REMARK  182  A    between atoms: _453  and  _454
REMARK  183  A    between atoms: _453  and  _456
REMARK  184  A    between atoms: _456  and  _457
REMARK  185  A    between atoms: _459  and  _461
REMARK  186  A    between atoms: _461  and  _462
REMARK  187  A    between atoms: _465  and  _467
REMARK  188  A    between atoms: _467  and  _468
REMARK  189  A    between atoms: _467  and  _470
REMARK  190  A    between atoms: _470  and  _471
REMARK  191  A    between atoms: _474  and  _476
REMARK  192  A    between atoms: _476  and  _477
REMARK  193  A    between atoms: _476  and  _479
REMARK  194  A    between atoms: _482  and  _484
REMARK  195  A    between atoms: _484  and  _485
REMARK  196  A    between atoms: _488  and  _490
REMARK  197  A    between atoms: _490  and  _491
REMARK  198  A    between atoms: _490  and  _493
REMARK  199  A    between atoms: _497  and  _498
REMARK  200  A    between atoms: _503  and  _505
REMARK  201  A    between atoms: _505  and  _506
REMARK  202  A    between atoms: _505  and  _508
REMARK  203  A    between atoms: _508  and  _509
REMARK  204  A    between atoms: _509  and  _510
REMARK  205  A    between atoms: _515  and  _517
REMARK  206  A    between atoms: _517  and  _518
REMARK  207  A    between atoms: _517  and  _520
REMARK  208  A    between atoms: _520  and  _521
REMARK  209  A    between atoms: _524  and  _526
REMARK  210  A    between atoms: _526  and  _527
REMARK  211  A    between atoms: _526  and  _529
REMARK  212  A    between atoms: _529  and  _530
REMARK  213  A    between atoms: _533  and  _535
REMARK  214  A    between atoms: _535  and  _536
REMARK  215  A    between atoms: _535  and  _538
REMARK  216  A    between atoms: _538  and  _539
REMARK                            x       y       z     vdW  Elec       q    Type
REMARK                         _______ _______ _______ _____ _____    ______ ____
ROOT
ATOM      1  O   HOH     1      54.350  31.732   6.961  0.00  0.00    +0.000 OA
ENDROOT
TORSDOF 0
REMARK  Name = ../refined-set-2016/2cli/2cli_pocket.pdb
REMARK  216 active torsions:
REMARK  status: ('A' for Active; 'I' for Inactive)
REMARK    1  A    between atoms: _1  and  _3
REMARK    2  A    between atoms: _3  and  _4
REMARK    3  A    between atoms: _3  and  _6
REMARK    4  A    between atoms: _10  and  _11
REMARK    5  A    between atoms: _16  and  _18
REMARK    6  A    between atoms: _18  and  _19
REMARK    7  A    between atoms: _18  and  _21
REMARK    8  A    between atoms: _21  and  _22
REMARK    9  A    between atoms: _28  and  _30
REMARK   10  A    between atoms: _30  and  _31
REMARK   11  A    between atoms: _30  and  _33
REMARK   12  A    between atoms: _36  and  _38
REMARK   13  A    between atoms: _38  and  _39
REMARK   14  A    between atoms: _38  and  _41
REMARK   15  A    between atoms: _41  and  _42
REMARK   16  A    between atoms: _45  and  _47
REMARK   17  A    between atoms: _47  and  _48
REMARK   18  A    between atoms: _47  and  _50
REMARK   19  A    between atoms: _50  and  _51
REMARK   20  A    between atoms: _54  and  _56
REMARK   21  A    between atoms: _56  and  _57
REMARK   22  A    between atoms: _56  and  _59
REMARK   23  A    between atoms: _59  and  _60
REMARK   24  A    between atoms: _60  and  _61
REMARK   25  A    between atoms: _64  and  _66
REMARK   26  A    between atoms: _66  and  _67
REMARK   27  A    between atoms: _66  and  _69
REMARK   28  A    between atoms: _69  and  _70
REMARK   29  A    between atoms: _73  and  _75
REMARK   30  A    between atoms: _75  and  _76
REMARK   31  A    between atoms: _78  and  _80
REMARK   32  A    between atoms: _80  and  _81
REMARK   33  A    between atoms: _80  and  _83
REMARK   34  A    between atoms: _83  and  _84
REMARK   35  A    between atoms: _87  and  _89
REMARK   36  A    between atoms: _89  and  _90
REMARK   37  A    between atoms: _93  and  _95
REMARK   38  A    between atoms: _95  and  _96
REMARK   39  A    between atoms: _95  and  _98
REMARK   40  A    between atoms: _98  and  _99
REMARK   41  A    between atoms: _102  and  _104
REMARK   42  A    between atoms: _104  and  _105
REMARK   43  A    between atoms: _107  and  _109
REMARK   44  A    between atoms: _109  and  _110
REMARK   45  A    between atoms: _109  and  _112
REMARK   46  A    between atoms: _112  and  _113
REMARK   47  A    between atoms: _116  and  _118
REMARK   48  A    between atoms: _118  and  _119
REMARK   49  A    between atoms: _118  and  _121
REMARK   50  A    between atoms: _121  and  _122
REMARK   51  A    between atoms: _125  and  _127
REMARK   52  A    between atoms: _127  and  _128
REMARK   53  A    between atoms: _130  and  _132
REMARK   54  A    between atoms: _132  and  _133
REMARK   55  A    between atoms: _132  and  _135
REMARK   56  A    between atoms: _135  and  _136
REMARK   57  A    between atoms: _139  and  _141
REMARK   58  A    between atoms: _141  and  _142
REMARK   59  A    between atoms: _141  and  _144
REMARK   60  A    between atoms: _144  and  _145
REMARK   61  A    between atoms: _148  and  _150
REMARK   62  A    between atoms: _150  and  _151
REMARK   63  A    between atoms: _150  and  _153
REMARK   64  A    between atoms: _153  and  _154
REMARK   65  A    between atoms: _154  and  _155
REMARK   66  A    between atoms: _157  and  _159
REMARK   67  A    between atoms: _159  and  _160
REMARK   68  A    between atoms: _159  and  _162
REMARK   69  A    between atoms: _162  and  _163
REMARK   70  A    between atoms: _168  and  _169
REMARK   71  A    between atoms: _171  and  _173
REMARK   72  A    between atoms: _173  and  _174
REMARK   73  A    between atoms: _173  and  _176
REMARK   74  A    between atoms: _176  and  _177
REMARK   75  A    between atoms: _180  and  _182
REMARK   76  A    between atoms: _182  and  _183
REMARK   77  A    between atoms: _182  and  _185
REMARK   78  A    between atoms: _188  and  _190
REMARK   79  A    between atoms: _190  and  _191
REMARK   80  A    between atoms: _194  and  _196
REMARK   81  A    between atoms: _196  and  _197
REMARK   82  A    between atoms: _196  and  _199
REMARK   83  A    between atoms: _199  and  _200
REMARK   84  A    between atoms: _203  and  _205
REMARK   85  A    between atoms: _205  and  _206
REMARK   86  A    between atoms: _205  and  _208
REMARK   87  A    between atoms: _212  and  _213
REMARK   88  A    between atoms: _218  and  _220
REMARK   89  A    between atoms: _220  and  _221
REMARK   90  A    between atoms: _220  and  _223
REMARK   91  A    between atoms: _223  and  _224
REMARK   92  A    between atoms: _227  and  _229
REMARK   93  A    between atoms: _229  and  _230
REMARK   94  A    between atoms: _229  and  _232
REMARK   95  A    between atoms: _232  and  _233
REMARK   96  A    between atoms: _239  and  _241
REMARK   97  A    between atoms: _241  and  _242
REMARK   98  A    between atoms: _241  and  _244
REMARK   99  A    between atoms: _244  and  _245
REMARK  100  A    between atoms: _248  and  _250
REMARK  101  A    between atoms: _250  and  _251
REMARK  102  A    between atoms: _250  and  _253
REMARK  103  A    between atoms: _256  and  _257
REMARK  104  A    between atoms: _262  and  _264
REMARK  105  A    between atoms: _264  and  _265
REMARK  106  A    between atoms: _264  and  _267
REMARK  107  A    between atoms: _267  and  _268
REMARK  108  A    between atoms: _273  and  _274
REMARK  109  A    between atoms: _276  and  _278
REMARK  110  A    between atoms: _278  and  _279
REMARK  111  A    between atoms: _278  and  _281
REMARK  112  A    between atoms: _281  and  _282
REMARK  113  A    between atoms: _287  and  _288
REMARK  114  A    between atoms: _290  and  _292
REMARK  115  A    between atoms: _292  and  _293
REMARK  116  A    between atoms: _292  and  _295
REMARK  117  A    between atoms: _295  and  _296
REMARK  118  A    between atoms: _299  and  _301
REMARK  119  A    between atoms: _301  and  _302
REMARK  120  A    between atoms: _301  and  _304
REMARK  121  A    between atoms: _304  and  _305
REMARK  122  A    between atoms: _307  and  _309
REMARK  123  A    between atoms: _309  and  _310
REMARK  124  A    between atoms: _309  and  _312
REMARK  125  A    between atoms: _312  and  _313
REMARK  126  A    between atoms: _313  and  _314
REMARK  127  A    between atoms: _314  and  _315
REMARK  128  A    between atoms: _324  and  _326
REMARK  129  A    between atoms: _326  and  _327
REMARK  130  A    between atoms: _329  and  _331
REMARK  131  A    between atoms: _331  and  _332
REMARK  132  A    between atoms: _331  and  _334
REMARK  133  A    between atoms: _337  and  _339
REMARK  134  A    between atoms: _339  and  _340
REMARK  135  A    between atoms: _339  and  _342
REMARK  136  A    between atoms: _342  and  _343
REMARK  137  A    between atoms: _346  and  _348
REMARK  138  A    between atoms: _348  and  _349
REMARK  139  A    between atoms: _351  and  _353
REMARK  140  A    between atoms: _353  and  _354
REMARK  141  A    between atoms: _353  and  _356
REMARK  142  A    between atoms: _356  and  _357
REMARK  143  A    between atoms: _360  and  _362
REMARK  144  A    between atoms: _362  and  _363
REMARK  145  A    between atoms: _362  and  _365
REMARK  146  A    between atoms: _365  and  _366
REMARK  147  A    between atoms: _366  and  _367
REMARK  148  A    between atoms: _372  and  _374
REMARK  149  A    between atoms: _374  and  _375
REMARK  150  A    between atoms: _377  and  _379
REMARK  151  A    between atoms: _379  and  _380
REMARK  152  A    between atoms: _379  and  _382
REMARK  153  A    between atoms: _382  and  _383
REMARK  154  A    between atoms: _389  and  _391
REMARK  155  A    between atoms: _391  and  _392
REMARK  156  A    between atoms: _394  and  _396
REMARK  157  A    between atoms: _396  and  _397
REMARK  158  A    between atoms: _396  and  _399
REMARK  159  A    between atoms: _399  and  _400
REMARK  160  A    between atoms: _403  and  _405
REMARK  161  A    between atoms: _405  and  _406
REMARK  162  A    between atoms: _405  and  _408
REMARK  163  A    between atoms: _408  and  _409
REMARK  164  A    between atoms: _411  and  _413
REMARK  165  A    between atoms: _413  and  _414
REMARK  166  A    between atoms: _413  and  _416
REMARK  167  A    between atoms: _416  and  _417
REMARK  168  A    between atoms: _417  and  _418
REMARK  169  A    between atoms: _423  and  _425
REMARK  170  A    between atoms: _425  and  _426
REMARK  171  A    between atoms: _429  and  _431
REMARK  172  A    between atoms: _431  and  _432
REMARK  173  A    between atoms: _431  and  _434
REMARK  174  A    between atoms: _434  and  _435
REMARK  175  A    between atoms: _438  and  _440
REMARK  176  A    between atoms: _440  and  _441
REMARK  177  A    between atoms: _440  and  _443
REMARK  178  A    between atoms: _443  and  _444
REMARK  179  A    between atoms: _446  and  _448
REMARK  180  A    between atoms: _448  and  _449
REMARK  181  A    between atoms: _451  and  _453
REMARK  182  A    between atoms: _453  and  _454
REMARK  183  A    between atoms: _453  and  _456
REMARK  184  A    between atoms: _456  and  _457
REMARK  185  A    between atoms: _459  and  _461
REMARK  186  A    between atoms: _461  and  _462
REMARK  187  A    between atoms: _465  and  _467
REMARK  188  A    between atoms: _467  and  _468
REMARK  189  A    between atoms: _467  and  _470
REMARK  190  A    between atoms: _470  and  _471
REMARK  191  A    between atoms: _474  and  _476
REMARK  192  A    between atoms: _476  and  _477
REMARK  193  A    between atoms: _476  and  _479
REMARK  194  A    between atoms: _482  and  _484
REMARK  195  A    between atoms: _484  and  _485
REMARK  196  A    between atoms: _488  and  _490
REMARK  197  A    between atoms: _490  and  _491
REMARK  198  A    between atoms: _490  and  _493
REMARK  199  A    between atoms: _497  and  _498
REMARK  200  A    between atoms: _503  and  _505
REMARK  201  A    between atoms: _505  and  _506
REMARK  202  A    between atoms: _505  and  _508
REMARK  203  A    between atoms: _508  and  _509
REMARK  204  A    between atoms: _509  and  _510
REMARK  205  A    between atoms: _515  and  _517
REMARK  206  A    between atoms: _517  and  _518
REMARK  207  A    between atoms: _517  and  _520
REMARK  208  A    between atoms: _520  and  _521
REMARK  209  A    between atoms: _524  and  _526
REMARK  210  A    between atoms: _526  and  _527
REMARK  211  A    between atoms: _526  and  _529
REMARK  212  A    between atoms: _529  and  _530
REMARK  213  A    between atoms: _533  and  _535
REMARK  214  A    between atoms: _535  and  _536
REMARK  215  A    between atoms: _535  and  _538
REMARK  216  A    between atoms: _538  and  _539
REMARK                            x       y       z     vdW  Elec       q    Type
REMARK                         _______ _______ _______ _____ _____    ______ ____
ROOT
ATOM      1  O   HOH     1      52.023  33.540   5.730  0.00  0.00    +0.000 OA
ENDROOT
TORSDOF 0
REMARK  Name = ../refined-set-2016/2cli/2cli_pocket.pdb
REMARK  216 active torsions:
REMARK  status: ('A' for Active; 'I' for Inactive)
REMARK    1  A    between atoms: _1  and  _3
REMARK    2  A    between atoms: _3  and  _4
REMARK    3  A    between atoms: _3  and  _6
REMARK    4  A    between atoms: _10  and  _11
REMARK    5  A    between atoms: _16  and  _18
REMARK    6  A    between atoms: _18  and  _19
REMARK    7  A    between atoms: _18  and  _21
REMARK    8  A    between atoms: _21  and  _22
REMARK    9  A    between atoms: _28  and  _30
REMARK   10  A    between atoms: _30  and  _31
REMARK   11  A    between atoms: _30  and  _33
REMARK   12  A    between atoms: _36  and  _38
REMARK   13  A    between atoms: _38  and  _39
REMARK   14  A    between atoms: _38  and  _41
REMARK   15  A    between atoms: _41  and  _42
REMARK   16  A    between atoms: _45  and  _47
REMARK   17  A    between atoms: _47  and  _48
REMARK   18  A    between atoms: _47  and  _50
REMARK   19  A    between atoms: _50  and  _51
REMARK   20  A    between atoms: _54  and  _56
REMARK   21  A    between atoms: _56  and  _57
REMARK   22  A    between atoms: _56  and  _59
REMARK   23  A    between atoms: _59  and  _60
REMARK   24  A    between atoms: _60  and  _61
REMARK   25  A    between atoms: _64  and  _66
REMARK   26  A    between atoms: _66  and  _67
REMARK   27  A    between atoms: _66  and  _69
REMARK   28  A    between atoms: _69  and  _70
REMARK   29  A    between atoms: _73  and  _75
REMARK   30  A    between atoms: _75  and  _76
REMARK   31  A    between atoms: _78  and  _80
REMARK   32  A    between atoms: _80  and  _81
REMARK   33  A    between atoms: _80  and  _83
REMARK   34  A    between atoms: _83  and  _84
REMARK   35  A    between atoms: _87  and  _89
REMARK   36  A    between atoms: _89  and  _90
REMARK   37  A    between atoms: _93  and  _95
REMARK   38  A    between atoms: _95  and  _96
REMARK   39  A    between atoms: _95  and  _98
REMARK   40  A    between atoms: _98  and  _99
REMARK   41  A    between atoms: _102  and  _104
REMARK   42  A    between atoms: _104  and  _105
REMARK   43  A    between atoms: _107  and  _109
REMARK   44  A    between atoms: _109  and  _110
REMARK   45  A    between atoms: _109  and  _112
REMARK   46  A    between atoms: _112  and  _113
REMARK   47  A    between atoms: _116  and  _118
REMARK   48  A    between atoms: _118  and  _119
REMARK   49  A    between atoms: _118  and  _121
REMARK   50  A    between atoms: _121  and  _122
REMARK   51  A    between atoms: _125  and  _127
REMARK   52  A    between atoms: _127  and  _128
REMARK   53  A    between atoms: _130  and  _132
REMARK   54  A    between atoms: _132  and  _133
REMARK   55  A    between atoms: _132  and  _135
REMARK   56  A    between atoms: _135  and  _136
REMARK   57  A    between atoms: _139  and  _141
REMARK   58  A    between atoms: _141  and  _142
REMARK   59  A    between atoms: _141  and  _144
REMARK   60  A    between atoms: _144  and  _145
REMARK   61  A    between atoms: _148  and  _150
REMARK   62  A    between atoms: _150  and  _151
REMARK   63  A    between atoms: _150  and  _153
REMARK   64  A    between atoms: _153  and  _154
REMARK   65  A    between atoms: _154  and  _155
REMARK   66  A    between atoms: _157  and  _159
REMARK   67  A    between atoms: _159  and  _160
REMARK   68  A    between atoms: _159  and  _162
REMARK   69  A    between atoms: _162  and  _163
REMARK   70  A    between atoms: _168  and  _169
REMARK   71  A    between atoms: _171  and  _173
REMARK   72  A    between atoms: _173  and  _174
REMARK   73  A    between atoms: _173  and  _176
REMARK   74  A    between atoms: _176  and  _177
REMARK   75  A    between atoms: _180  and  _182
REMARK   76  A    between atoms: _182  and  _183
REMARK   77  A    between atoms: _182  and  _185
REMARK   78  A    between atoms: _188  and  _190
REMARK   79  A    between atoms: _190  and  _191
REMARK   80  A    between atoms: _194  and  _196
REMARK   81  A    between atoms: _196  and  _197
REMARK   82  A    between atoms: _196  and  _199
REMARK   83  A    between atoms: _199  and  _200
REMARK   84  A    between atoms: _203  and  _205
REMARK   85  A    between atoms: _205  and  _206
REMARK   86  A    between atoms: _205  and  _208
REMARK   87  A    between atoms: _212  and  _213
REMARK   88  A    between atoms: _218  and  _220
REMARK   89  A    between atoms: _220  and  _221
REMARK   90  A    between atoms: _220  and  _223
REMARK   91  A    between atoms: _223  and  _224
REMARK   92  A    between atoms: _227  and  _229
REMARK   93  A    between atoms: _229  and  _230
REMARK   94  A    between atoms: _229  and  _232
REMARK   95  A    between atoms: _232  and  _233
REMARK   96  A    between atoms: _239  and  _241
REMARK   97  A    between atoms: _241  and  _242
REMARK   98  A    between atoms: _241  and  _244
REMARK   99  A    between atoms: _244  and  _245
REMARK  100  A    between atoms: _248  and  _250
REMARK  101  A    between atoms: _250  and  _251
REMARK  102  A    between atoms: _250  and  _253
REMARK  103  A    between atoms: _256  and  _257
REMARK  104  A    between atoms: _262  and  _264
REMARK  105  A    between atoms: _264  and  _265
REMARK  106  A    between atoms: _264  and  _267
REMARK  107  A    between atoms: _267  and  _268
REMARK  108  A    between atoms: _273  and  _274
REMARK  109  A    between atoms: _276  and  _278
REMARK  110  A    between atoms: _278  and  _279
REMARK  111  A    between atoms: _278  and  _281
REMARK  112  A    between atoms: _281  and  _282
REMARK  113  A    between atoms: _287  and  _288
REMARK  114  A    between atoms: _290  and  _292
REMARK  115  A    between atoms: _292  and  _293
REMARK  116  A    between atoms: _292  and  _295
REMARK  117  A    between atoms: _295  and  _296
REMARK  118  A    between atoms: _299  and  _301
REMARK  119  A    between atoms: _301  and  _302
REMARK  120  A    between atoms: _301  and  _304
REMARK  121  A    between atoms: _304  and  _305
REMARK  122  A    between atoms: _307  and  _309
REMARK  123  A    between atoms: _309  and  _310
REMARK  124  A    between atoms: _309  and  _312
REMARK  125  A    between atoms: _312  and  _313
REMARK  126  A    between atoms: _313  and  _314
REMARK  127  A    between atoms: _314  and  _315
REMARK  128  A    between atoms: _324  and  _326
REMARK  129  A    between atoms: _326  and  _327
REMARK  130  A    between atoms: _329  and  _331
REMARK  131  A    between atoms: _331  and  _332
REMARK  132  A    between atoms: _331  and  _334
REMARK  133  A    between atoms: _337  and  _339
REMARK  134  A    between atoms: _339  and  _340
REMARK  135  A    between atoms: _339  and  _342
REMARK  136  A    between atoms: _342  and  _343
REMARK  137  A    between atoms: _346  and  _348
REMARK  138  A    between atoms: _348  and  _349
REMARK  139  A    between atoms: _351  and  _353
REMARK  140  A    between atoms: _353  and  _354
REMARK  141  A    between atoms: _353  and  _356
REMARK  142  A    between atoms: _356  and  _357
REMARK  143  A    between atoms: _360  and  _362
REMARK  144  A    between atoms: _362  and  _363
REMARK  145  A    between atoms: _362  and  _365
REMARK  146  A    between atoms: _365  and  _366
REMARK  147  A    between atoms: _366  and  _367
REMARK  148  A    between atoms: _372  and  _374
REMARK  149  A    between atoms: _374  and  _375
REMARK  150  A    between atoms: _377  and  _379
REMARK  151  A    between atoms: _379  and  _380
REMARK  152  A    between atoms: _379  and  _382
REMARK  153  A    between atoms: _382  and  _383
REMARK  154  A    between atoms: _389  and  _391
REMARK  155  A    between atoms: _391  and  _392
REMARK  156  A    between atoms: _394  and  _396
REMARK  157  A    between atoms: _396  and  _397
REMARK  158  A    between atoms: _396  and  _399
REMARK  159  A    between atoms: _399  and  _400
REMARK  160  A    between atoms: _403  and  _405
REMARK  161  A    between atoms: _405  and  _406
REMARK  162  A    between atoms: _405  and  _408
REMARK  163  A    between atoms: _408  and  _409
REMARK  164  A    between atoms: _411  and  _413
REMARK  165  A    between atoms: _413  and  _414
REMARK  166  A    between atoms: _413  and  _416
REMARK  167  A    between atoms: _416  and  _417
REMARK  168  A    between atoms: _417  and  _418
REMARK  169  A    between atoms: _423  and  _425
REMARK  170  A    between atoms: _425  and  _426
REMARK  171  A    between atoms: _429  and  _431
REMARK  172  A    between atoms: _431  and  _432
REMARK  173  A    between atoms: _431  and  _434
REMARK  174  A    between atoms: _434  and  _435
REMARK  175  A    between atoms: _438  and  _440
REMARK  176  A    between atoms: _440  and  _441
REMARK  177  A    between atoms: _440  and  _443
REMARK  178  A    between atoms: _443  and  _444
REMARK  179  A    between atoms: _446  and  _448
REMARK  180  A    between atoms: _448  and  _449
REMARK  181  A    between atoms: _451  and  _453
REMARK  182  A    between atoms: _453  and  _454
REMARK  183  A    between atoms: _453  and  _456
REMARK  184  A    between atoms: _456  and  _457
REMARK  185  A    between atoms: _459  and  _461
REMARK  186  A    between atoms: _461  and  _462
REMARK  187  A    between atoms: _465  and  _467
REMARK  188  A    between atoms: _467  and  _468
REMARK  189  A    between atoms: _467  and  _470
REMARK  190  A    between atoms: _470  and  _471
REMARK  191  A    between atoms: _474  and  _476
REMARK  192  A    between atoms: _476  and  _477
REMARK  193  A    between atoms: _476  and  _479
REMARK  194  A    between atoms: _482  and  _484
REMARK  195  A    between atoms: _484  and  _485
REMARK  196  A    between atoms: _488  and  _490
REMARK  197  A    between atoms: _490  and  _491
REMARK  198  A    between atoms: _490  and  _493
REMARK  199  A    between atoms: _497  and  _498
REMARK  200  A    between atoms: _503  and  _505
REMARK  201  A    between atoms: _505  and  _506
REMARK  202  A    between atoms: _505  and  _508
REMARK  203  A    between atoms: _508  and  _509
REMARK  204  A    between atoms: _509  and  _510
REMARK  205  A    between atoms: _515  and  _517
REMARK  206  A    between atoms: _517  and  _518
REMARK  207  A    between atoms: _517  and  _520
REMARK  208  A    between atoms: _520  and  _521
REMARK  209  A    between atoms: _524  and  _526
REMARK  210  A    between atoms: _526  and  _527
REMARK  211  A    between atoms: _526  and  _529
REMARK  212  A    between atoms: _529  and  _530
REMARK  213  A    between atoms: _533  and  _535
REMARK  214  A    between atoms: _535  and  _536
REMARK  215  A    between atoms: _535  and  _538
REMARK  216  A    between atoms: _538  and  _539
REMARK                            x       y       z     vdW  Elec       q    Type
REMARK                         _______ _______ _______ _____ _____    ______ ____
ROOT
ATOM      1  O   HOH     1      50.388  16.841  17.831  0.00  0.00    +0.000 OA
ENDROOT
TORSDOF 0
REMARK  Name = ../refined-set-2016/2cli/2cli_pocket.pdb
REMARK  216 active torsions:
REMARK  status: ('A' for Active; 'I' for Inactive)
REMARK    1  A    between atoms: _1  and  _3
REMARK    2  A    between atoms: _3  and  _4
REMARK    3  A    between atoms: _3  and  _6
REMARK    4  A    between atoms: _10  and  _11
REMARK    5  A    between atoms: _16  and  _18
REMARK    6  A    between atoms: _18  and  _19
REMARK    7  A    between atoms: _18  and  _21
REMARK    8  A    between atoms: _21  and  _22
REMARK    9  A    between atoms: _28  and  _30
REMARK   10  A    between atoms: _30  and  _31
REMARK   11  A    between atoms: _30  and  _33
REMARK   12  A    between atoms: _36  and  _38
REMARK   13  A    between atoms: _38  and  _39
REMARK   14  A    between atoms: _38  and  _41
REMARK   15  A    between atoms: _41  and  _42
REMARK   16  A    between atoms: _45  and  _47
REMARK   17  A    between atoms: _47  and  _48
REMARK   18  A    between atoms: _47  and  _50
REMARK   19  A    between atoms: _50  and  _51
REMARK   20  A    between atoms: _54  and  _56
REMARK   21  A    between atoms: _56  and  _57
REMARK   22  A    between atoms: _56  and  _59
REMARK   23  A    between atoms: _59  and  _60
REMARK   24  A    between atoms: _60  and  _61
REMARK   25  A    between atoms: _64  and  _66
REMARK   26  A    between atoms: _66  and  _67
REMARK   27  A    between atoms: _66  and  _69
REMARK   28  A    between atoms: _69  and  _70
REMARK   29  A    between atoms: _73  and  _75
REMARK   30  A    between atoms: _75  and  _76
REMARK   31  A    between atoms: _78  and  _80
REMARK   32  A    between atoms: _80  and  _81
REMARK   33  A    between atoms: _80  and  _83
REMARK   34  A    between atoms: _83  and  _84
REMARK   35  A    between atoms: _87  and  _89
REMARK   36  A    between atoms: _89  and  _90
REMARK   37  A    between atoms: _93  and  _95
REMARK   38  A    between atoms: _95  and  _96
REMARK   39  A    between atoms: _95  and  _98
REMARK   40  A    between atoms: _98  and  _99
REMARK   41  A    between atoms: _102  and  _104
REMARK   42  A    between atoms: _104  and  _105
REMARK   43  A    between atoms: _107  and  _109
REMARK   44  A    between atoms: _109  and  _110
REMARK   45  A    between atoms: _109  and  _112
REMARK   46  A    between atoms: _112  and  _113
REMARK   47  A    between atoms: _116  and  _118
REMARK   48  A    between atoms: _118  and  _119
REMARK   49  A    between atoms: _118  and  _121
REMARK   50  A    between atoms: _121  and  _122
REMARK   51  A    between atoms: _125  and  _127
REMARK   52  A    between atoms: _127  and  _128
REMARK   53  A    between atoms: _130  and  _132
REMARK   54  A    between atoms: _132  and  _133
REMARK   55  A    between atoms: _132  and  _135
REMARK   56  A    between atoms: _135  and  _136
REMARK   57  A    between atoms: _139  and  _141
REMARK   58  A    between atoms: _141  and  _142
REMARK   59  A    between atoms: _141  and  _144
REMARK   60  A    between atoms: _144  and  _145
REMARK   61  A    between atoms: _148  and  _150
REMARK   62  A    between atoms: _150  and  _151
REMARK   63  A    between atoms: _150  and  _153
REMARK   64  A    between atoms: _153  and  _154
REMARK   65  A    between atoms: _154  and  _155
REMARK   66  A    between atoms: _157  and  _159
REMARK   67  A    between atoms: _159  and  _160
REMARK   68  A    between atoms: _159  and  _162
REMARK   69  A    between atoms: _162  and  _163
REMARK   70  A    between atoms: _168  and  _169
REMARK   71  A    between atoms: _171  and  _173
REMARK   72  A    between atoms: _173  and  _174
REMARK   73  A    between atoms: _173  and  _176
REMARK   74  A    between atoms: _176  and  _177
REMARK   75  A    between atoms: _180  and  _182
REMARK   76  A    between atoms: _182  and  _183
REMARK   77  A    between atoms: _182  and  _185
REMARK   78  A    between atoms: _188  and  _190
REMARK   79  A    between atoms: _190  and  _191
REMARK   80  A    between atoms: _194  and  _196
REMARK   81  A    between atoms: _196  and  _197
REMARK   82  A    between atoms: _196  and  _199
REMARK   83  A    between atoms: _199  and  _200
REMARK   84  A    between atoms: _203  and  _205
REMARK   85  A    between atoms: _205  and  _206
REMARK   86  A    between atoms: _205  and  _208
REMARK   87  A    between atoms: _212  and  _213
REMARK   88  A    between atoms: _218  and  _220
REMARK   89  A    between atoms: _220  and  _221
REMARK   90  A    between atoms: _220  and  _223
REMARK   91  A    between atoms: _223  and  _224
REMARK   92  A    between atoms: _227  and  _229
REMARK   93  A    between atoms: _229  and  _230
REMARK   94  A    between atoms: _229  and  _232
REMARK   95  A    between atoms: _232  and  _233
REMARK   96  A    between atoms: _239  and  _241
REMARK   97  A    between atoms: _241  and  _242
REMARK   98  A    between atoms: _241  and  _244
REMARK   99  A    between atoms: _244  and  _245
REMARK  100  A    between atoms: _248  and  _250
REMARK  101  A    between atoms: _250  and  _251
REMARK  102  A    between atoms: _250  and  _253
REMARK  103  A    between atoms: _256  and  _257
REMARK  104  A    between atoms: _262  and  _264
REMARK  105  A    between atoms: _264  and  _265
REMARK  106  A    between atoms: _264  and  _267
REMARK  107  A    between atoms: _267  and  _268
REMARK  108  A    between atoms: _273  and  _274
REMARK  109  A    between atoms: _276  and  _278
REMARK  110  A    between atoms: _278  and  _279
REMARK  111  A    between atoms: _278  and  _281
REMARK  112  A    between atoms: _281  and  _282
REMARK  113  A    between atoms: _287  and  _288
REMARK  114  A    between atoms: _290  and  _292
REMARK  115  A    between atoms: _292  and  _293
REMARK  116  A    between atoms: _292  and  _295
REMARK  117  A    between atoms: _295  and  _296
REMARK  118  A    between atoms: _299  and  _301
REMARK  119  A    between atoms: _301  and  _302
REMARK  120  A    between atoms: _301  and  _304
REMARK  121  A    between atoms: _304  and  _305
REMARK  122  A    between atoms: _307  and  _309
REMARK  123  A    between atoms: _309  and  _310
REMARK  124  A    between atoms: _309  and  _312
REMARK  125  A    between atoms: _312  and  _313
REMARK  126  A    between atoms: _313  and  _314
REMARK  127  A    between atoms: _314  and  _315
REMARK  128  A    between atoms: _324  and  _326
REMARK  129  A    between atoms: _326  and  _327
REMARK  130  A    between atoms: _329  and  _331
REMARK  131  A    between atoms: _331  and  _332
REMARK  132  A    between atoms: _331  and  _334
REMARK  133  A    between atoms: _337  and  _339
REMARK  134  A    between atoms: _339  and  _340
REMARK  135  A    between atoms: _339  and  _342
REMARK  136  A    between atoms: _342  and  _343
REMARK  137  A    between atoms: _346  and  _348
REMARK  138  A    between atoms: _348  and  _349
REMARK  139  A    between atoms: _351  and  _353
REMARK  140  A    between atoms: _353  and  _354
REMARK  141  A    between atoms: _353  and  _356
REMARK  142  A    between atoms: _356  and  _357
REMARK  143  A    between atoms: _360  and  _362
REMARK  144  A    between atoms: _362  and  _363
REMARK  145  A    between atoms: _362  and  _365
REMARK  146  A    between atoms: _365  and  _366
REMARK  147  A    between atoms: _366  and  _367
REMARK  148  A    between atoms: _372  and  _374
REMARK  149  A    between atoms: _374  and  _375
REMARK  150  A    between atoms: _377  and  _379
REMARK  151  A    between atoms: _379  and  _380
REMARK  152  A    between atoms: _379  and  _382
REMARK  153  A    between atoms: _382  and  _383
REMARK  154  A    between atoms: _389  and  _391
REMARK  155  A    between atoms: _391  and  _392
REMARK  156  A    between atoms: _394  and  _396
REMARK  157  A    between atoms: _396  and  _397
REMARK  158  A    between atoms: _396  and  _399
REMARK  159  A    between atoms: _399  and  _400
REMARK  160  A    between atoms: _403  and  _405
REMARK  161  A    between atoms: _405  and  _406
REMARK  162  A    between atoms: _405  and  _408
REMARK  163  A    between atoms: _408  and  _409
REMARK  164  A    between atoms: _411  and  _413
REMARK  165  A    between atoms: _413  and  _414
REMARK  166  A    between atoms: _413  and  _416
REMARK  167  A    between atoms: _416  and  _417
REMARK  168  A    between atoms: _417  and  _418
REMARK  169  A    between atoms: _423  and  _425
REMARK  170  A    between atoms: _425  and  _426
REMARK  171  A    between atoms: _429  and  _431
REMARK  172  A    between atoms: _431  and  _432
REMARK  173  A    between atoms: _431  and  _434
REMARK  174  A    between atoms: _434  and  _435
REMARK  175  A    between atoms: _438  and  _440
REMARK  176  A    between atoms: _440  and  _441
REMARK  177  A    between atoms: _440  and  _443
REMARK  178  A    between atoms: _443  and  _444
REMARK  179  A    between atoms: _446  and  _448
REMARK  180  A    between atoms: _448  and  _449
REMARK  181  A    between atoms: _451  and  _453
REMARK  182  A    between atoms: _453  and  _454
REMARK  183  A    between atoms: _453  and  _456
REMARK  184  A    between atoms: _456  and  _457
REMARK  185  A    between atoms: _459  and  _461
REMARK  186  A    between atoms: _461  and  _462
REMARK  187  A    between atoms: _465  and  _467
REMARK  188  A    between atoms: _467  and  _468
REMARK  189  A    between atoms: _467  and  _470
REMARK  190  A    between atoms: _470  and  _471
REMARK  191  A    between atoms: _474  and  _476
REMARK  192  A    between atoms: _476  and  _477
REMARK  193  A    between atoms: _476  and  _479
REMARK  194  A    between atoms: _482  and  _484
REMARK  195  A    between atoms: _484  and  _485
REMARK  196  A    between atoms: _488  and  _490
REMARK  197  A    between atoms: _490  and  _491
REMARK  198  A    between atoms: _490  and  _493
REMARK  199  A    between atoms: _497  and  _498
REMARK  200  A    between atoms: _503  and  _505
REMARK  201  A    between atoms: _505  and  _506
REMARK  202  A    between atoms: _505  and  _508
REMARK  203  A    between atoms: _508  and  _509
REMARK  204  A    between atoms: _509  and  _510
REMARK  205  A    between atoms: _515  and  _517
REMARK  206  A    between atoms: _517  and  _518
REMARK  207  A    between atoms: _517  and  _520
REMARK  208  A    between atoms: _520  and  _521
REMARK  209  A    between atoms: _524  and  _526
REMARK  210  A    between atoms: _526  and  _527
REMARK  211  A    between atoms: _526  and  _529
REMARK  212  A    between atoms: _529  and  _530
REMARK  213  A    between atoms: _533  and  _535
REMARK  214  A    between atoms: _535  and  _536
REMARK  215  A    between atoms: _535  and  _538
REMARK  216  A    between atoms: _538  and  _539
REMARK                            x       y       z     vdW  Elec       q    Type
REMARK                         _______ _______ _______ _____ _____    ______ ____
ROOT
ATOM      1  O   HOH     1      49.339  18.315  22.545  0.00  0.00    +0.000 OA
ENDROOT
TORSDOF 0
REMARK  Name = ../refined-set-2016/2cli/2cli_pocket.pdb
REMARK  216 active torsions:
REMARK  status: ('A' for Active; 'I' for Inactive)
REMARK    1  A    between atoms: _1  and  _3
REMARK    2  A    between atoms: _3  and  _4
REMARK    3  A    between atoms: _3  and  _6
REMARK    4  A    between atoms: _10  and  _11
REMARK    5  A    between atoms: _16  and  _18
REMARK    6  A    between atoms: _18  and  _19
REMARK    7  A    between atoms: _18  and  _21
REMARK    8  A    between atoms: _21  and  _22
REMARK    9  A    between atoms: _28  and  _30
REMARK   10  A    between atoms: _30  and  _31
REMARK   11  A    between atoms: _30  and  _33
REMARK   12  A    between atoms: _36  and  _38
REMARK   13  A    between atoms: _38  and  _39
REMARK   14  A    between atoms: _38  and  _41
REMARK   15  A    between atoms: _41  and  _42
REMARK   16  A    between atoms: _45  and  _47
REMARK   17  A    between atoms: _47  and  _48
REMARK   18  A    between atoms: _47  and  _50
REMARK   19  A    between atoms: _50  and  _51
REMARK   20  A    between atoms: _54  and  _56
REMARK   21  A    between atoms: _56  and  _57
REMARK   22  A    between atoms: _56  and  _59
REMARK   23  A    between atoms: _59  and  _60
REMARK   24  A    between atoms: _60  and  _61
REMARK   25  A    between atoms: _64  and  _66
REMARK   26  A    between atoms: _66  and  _67
REMARK   27  A    between atoms: _66  and  _69
REMARK   28  A    between atoms: _69  and  _70
REMARK   29  A    between atoms: _73  and  _75
REMARK   30  A    between atoms: _75  and  _76
REMARK   31  A    between atoms: _78  and  _80
REMARK   32  A    between atoms: _80  and  _81
REMARK   33  A    between atoms: _80  and  _83
REMARK   34  A    between atoms: _83  and  _84
REMARK   35  A    between atoms: _87  and  _89
REMARK   36  A    between atoms: _89  and  _90
REMARK   37  A    between atoms: _93  and  _95
REMARK   38  A    between atoms: _95  and  _96
REMARK   39  A    between atoms: _95  and  _98
REMARK   40  A    between atoms: _98  and  _99
REMARK   41  A    between atoms: _102  and  _104
REMARK   42  A    between atoms: _104  and  _105
REMARK   43  A    between atoms: _107  and  _109
REMARK   44  A    between atoms: _109  and  _110
REMARK   45  A    between atoms: _109  and  _112
REMARK   46  A    between atoms: _112  and  _113
REMARK   47  A    between atoms: _116  and  _118
REMARK   48  A    between atoms: _118  and  _119
REMARK   49  A    between atoms: _118  and  _121
REMARK   50  A    between atoms: _121  and  _122
REMARK   51  A    between atoms: _125  and  _127
REMARK   52  A    between atoms: _127  and  _128
REMARK   53  A    between atoms: _130  and  _132
REMARK   54  A    between atoms: _132  and  _133
REMARK   55  A    between atoms: _132  and  _135
REMARK   56  A    between atoms: _135  and  _136
REMARK   57  A    between atoms: _139  and  _141
REMARK   58  A    between atoms: _141  and  _142
REMARK   59  A    between atoms: _141  and  _144
REMARK   60  A    between atoms: _144  and  _145
REMARK   61  A    between atoms: _148  and  _150
REMARK   62  A    between atoms: _150  and  _151
REMARK   63  A    between atoms: _150  and  _153
REMARK   64  A    between atoms: _153  and  _154
REMARK   65  A    between atoms: _154  and  _155
REMARK   66  A    between atoms: _157  and  _159
REMARK   67  A    between atoms: _159  and  _160
REMARK   68  A    between atoms: _159  and  _162
REMARK   69  A    between atoms: _162  and  _163
REMARK   70  A    between atoms: _168  and  _169
REMARK   71  A    between atoms: _171  and  _173
REMARK   72  A    between atoms: _173  and  _174
REMARK   73  A    between atoms: _173  and  _176
REMARK   74  A    between atoms: _176  and  _177
REMARK   75  A    between atoms: _180  and  _182
REMARK   76  A    between atoms: _182  and  _183
REMARK   77  A    between atoms: _182  and  _185
REMARK   78  A    between atoms: _188  and  _190
REMARK   79  A    between atoms: _190  and  _191
REMARK   80  A    between atoms: _194  and  _196
REMARK   81  A    between atoms: _196  and  _197
REMARK   82  A    between atoms: _196  and  _199
REMARK   83  A    between atoms: _199  and  _200
REMARK   84  A    between atoms: _203  and  _205
REMARK   85  A    between atoms: _205  and  _206
REMARK   86  A    between atoms: _205  and  _208
REMARK   87  A    between atoms: _212  and  _213
REMARK   88  A    between atoms: _218  and  _220
REMARK   89  A    between atoms: _220  and  _221
REMARK   90  A    between atoms: _220  and  _223
REMARK   91  A    between atoms: _223  and  _224
REMARK   92  A    between atoms: _227  and  _229
REMARK   93  A    between atoms: _229  and  _230
REMARK   94  A    between atoms: _229  and  _232
REMARK   95  A    between atoms: _232  and  _233
REMARK   96  A    between atoms: _239  and  _241
REMARK   97  A    between atoms: _241  and  _242
REMARK   98  A    between atoms: _241  and  _244
REMARK   99  A    between atoms: _244  and  _245
REMARK  100  A    between atoms: _248  and  _250
REMARK  101  A    between atoms: _250  and  _251
REMARK  102  A    between atoms: _250  and  _253
REMARK  103  A    between atoms: _256  and  _257
REMARK  104  A    between atoms: _262  and  _264
REMARK  105  A    between atoms: _264  and  _265
REMARK  106  A    between atoms: _264  and  _267
REMARK  107  A    between atoms: _267  and  _268
REMARK  108  A    between atoms: _273  and  _274
REMARK  109  A    between atoms: _276  and  _278
REMARK  110  A    between atoms: _278  and  _279
REMARK  111  A    between atoms: _278  and  _281
REMARK  112  A    between atoms: _281  and  _282
REMARK  113  A    between atoms: _287  and  _288
REMARK  114  A    between atoms: _290  and  _292
REMARK  115  A    between atoms: _292  and  _293
REMARK  116  A    between atoms: _292  and  _295
REMARK  117  A    between atoms: _295  and  _296
REMARK  118  A    between atoms: _299  and  _301
REMARK  119  A    between atoms: _301  and  _302
REMARK  120  A    between atoms: _301  and  _304
REMARK  121  A    between atoms: _304  and  _305
REMARK  122  A    between atoms: _307  and  _309
REMARK  123  A    between atoms: _309  and  _310
REMARK  124  A    between atoms: _309  and  _312
REMARK  125  A    between atoms: _312  and  _313
REMARK  126  A    between atoms: _313  and  _314
REMARK  127  A    between atoms: _314  and  _315
REMARK  128  A    between atoms: _324  and  _326
REMARK  129  A    between atoms: _326  and  _327
REMARK  130  A    between atoms: _329  and  _331
REMARK  131  A    between atoms: _331  and  _332
REMARK  132  A    between atoms: _331  and  _334
REMARK  133  A    between atoms: _337  and  _339
REMARK  134  A    between atoms: _339  and  _340
REMARK  135  A    between atoms: _339  and  _342
REMARK  136  A    between atoms: _342  and  _343
REMARK  137  A    between atoms: _346  and  _348
REMARK  138  A    between atoms: _348  and  _349
REMARK  139  A    between atoms: _351  and  _353
REMARK  140  A    between atoms: _353  and  _354
REMARK  141  A    between atoms: _353  and  _356
REMARK  142  A    between atoms: _356  and  _357
REMARK  143  A    between atoms: _360  and  _362
REMARK  144  A    between atoms: _362  and  _363
REMARK  145  A    between atoms: _362  and  _365
REMARK  146  A    between atoms: _365  and  _366
REMARK  147  A    between atoms: _366  and  _367
REMARK  148  A    between atoms: _372  and  _374
REMARK  149  A    between atoms: _374  and  _375
REMARK  150  A    between atoms: _377  and  _379
REMARK  151  A    between atoms: _379  and  _380
REMARK  152  A    between atoms: _379  and  _382
REMARK  153  A    between atoms: _382  and  _383
REMARK  154  A    between atoms: _389  and  _391
REMARK  155  A    between atoms: _391  and  _392
REMARK  156  A    between atoms: _394  and  _396
REMARK  157  A    between atoms: _396  and  _397
REMARK  158  A    between atoms: _396  and  _399
REMARK  159  A    between atoms: _399  and  _400
REMARK  160  A    between atoms: _403  and  _405
REMARK  161  A    between atoms: _405  and  _406
REMARK  162  A    between atoms: _405  and  _408
REMARK  163  A    between atoms: _408  and  _409
REMARK  164  A    between atoms: _411  and  _413
REMARK  165  A    between atoms: _413  and  _414
REMARK  166  A    between atoms: _413  and  _416
REMARK  167  A    between atoms: _416  and  _417
REMARK  168  A    between atoms: _417  and  _418
REMARK  169  A    between atoms: _423  and  _425
REMARK  170  A    between atoms: _425  and  _426
REMARK  171  A    between atoms: _429  and  _431
REMARK  172  A    between atoms: _431  and  _432
REMARK  173  A    between atoms: _431  and  _434
REMARK  174  A    between atoms: _434  and  _435
REMARK  175  A    between atoms: _438  and  _440
REMARK  176  A    between atoms: _440  and  _441
REMARK  177  A    between atoms: _440  and  _443
REMARK  178  A    between atoms: _443  and  _444
REMARK  179  A    between atoms: _446  and  _448
REMARK  180  A    between atoms: _448  and  _449
REMARK  181  A    between atoms: _451  and  _453
REMARK  182  A    between atoms: _453  and  _454
REMARK  183  A    between atoms: _453  and  _456
REMARK  184  A    between atoms: _456  and  _457
REMARK  185  A    between atoms: _459  and  _461
REMARK  186  A    between atoms: _461  and  _462
REMARK  187  A    between atoms: _465  and  _467
REMARK  188  A    between atoms: _467  and  _468
REMARK  189  A    between atoms: _467  and  _470
REMARK  190  A    between atoms: _470  and  _471
REMARK  191  A    between atoms: _474  and  _476
REMARK  192  A    between atoms: _476  and  _477
REMARK  193  A    between atoms: _476  and  _479
REMARK  194  A    between atoms: _482  and  _484
REMARK  195  A    between atoms: _484  and  _485
REMARK  196  A    between atoms: _488  and  _490
REMARK  197  A    between atoms: _490  and  _491
REMARK  198  A    between atoms: _490  and  _493
REMARK  199  A    between atoms: _497  and  _498
REMARK  200  A    between atoms: _503  and  _505
REMARK  201  A    between atoms: _505  and  _506
REMARK  202  A    between atoms: _505  and  _508
REMARK  203  A    between atoms: _508  and  _509
REMARK  204  A    between atoms: _509  and  _510
REMARK  205  A    between atoms: _515  and  _517
REMARK  206  A    between atoms: _517  and  _518
REMARK  207  A    between atoms: _517  and  _520
REMARK  208  A    between atoms: _520  and  _521
REMARK  209  A    between atoms: _524  and  _526
REMARK  210  A    between atoms: _526  and  _527
REMARK  211  A    between atoms: _526  and  _529
REMARK  212  A    between atoms: _529  and  _530
REMARK  213  A    between atoms: _533  and  _535
REMARK  214  A    between atoms: _535  and  _536
REMARK  215  A    between atoms: _535  and  _538
REMARK  216  A    between atoms: _538  and  _539
REMARK                            x       y       z     vdW  Elec       q    Type
REMARK                         _______ _______ _______ _____ _____    ______ ____
ROOT
ATOM      1  O   HOH     1      50.917  20.026   8.294  0.00  0.00    +0.000 OA
ENDROOT
TORSDOF 0
REMARK  Name = ../refined-set-2016/2cli/2cli_pocket.pdb
REMARK  216 active torsions:
REMARK  status: ('A' for Active; 'I' for Inactive)
REMARK    1  A    between atoms: _1  and  _3
REMARK    2  A    between atoms: _3  and  _4
REMARK    3  A    between atoms: _3  and  _6
REMARK    4  A    between atoms: _10  and  _11
REMARK    5  A    between atoms: _16  and  _18
REMARK    6  A    between atoms: _18  and  _19
REMARK    7  A    between atoms: _18  and  _21
REMARK    8  A    between atoms: _21  and  _22
REMARK    9  A    between atoms: _28  and  _30
REMARK   10  A    between atoms: _30  and  _31
REMARK   11  A    between atoms: _30  and  _33
REMARK   12  A    between atoms: _36  and  _38
REMARK   13  A    between atoms: _38  and  _39
REMARK   14  A    between atoms: _38  and  _41
REMARK   15  A    between atoms: _41  and  _42
REMARK   16  A    between atoms: _45  and  _47
REMARK   17  A    between atoms: _47  and  _48
REMARK   18  A    between atoms: _47  and  _50
REMARK   19  A    between atoms: _50  and  _51
REMARK   20  A    between atoms: _54  and  _56
REMARK   21  A    between atoms: _56  and  _57
REMARK   22  A    between atoms: _56  and  _59
REMARK   23  A    between atoms: _59  and  _60
REMARK   24  A    between atoms: _60  and  _61
REMARK   25  A    between atoms: _64  and  _66
REMARK   26  A    between atoms: _66  and  _67
REMARK   27  A    between atoms: _66  and  _69
REMARK   28  A    between atoms: _69  and  _70
REMARK   29  A    between atoms: _73  and  _75
REMARK   30  A    between atoms: _75  and  _76
REMARK   31  A    between atoms: _78  and  _80
REMARK   32  A    between atoms: _80  and  _81
REMARK   33  A    between atoms: _80  and  _83
REMARK   34  A    between atoms: _83  and  _84
REMARK   35  A    between atoms: _87  and  _89
REMARK   36  A    between atoms: _89  and  _90
REMARK   37  A    between atoms: _93  and  _95
REMARK   38  A    between atoms: _95  and  _96
REMARK   39  A    between atoms: _95  and  _98
REMARK   40  A    between atoms: _98  and  _99
REMARK   41  A    between atoms: _102  and  _104
REMARK   42  A    between atoms: _104  and  _105
REMARK   43  A    between atoms: _107  and  _109
REMARK   44  A    between atoms: _109  and  _110
REMARK   45  A    between atoms: _109  and  _112
REMARK   46  A    between atoms: _112  and  _113
REMARK   47  A    between atoms: _116  and  _118
REMARK   48  A    between atoms: _118  and  _119
REMARK   49  A    between atoms: _118  and  _121
REMARK   50  A    between atoms: _121  and  _122
REMARK   51  A    between atoms: _125  and  _127
REMARK   52  A    between atoms: _127  and  _128
REMARK   53  A    between atoms: _130  and  _132
REMARK   54  A    between atoms: _132  and  _133
REMARK   55  A    between atoms: _132  and  _135
REMARK   56  A    between atoms: _135  and  _136
REMARK   57  A    between atoms: _139  and  _141
REMARK   58  A    between atoms: _141  and  _142
REMARK   59  A    between atoms: _141  and  _144
REMARK   60  A    between atoms: _144  and  _145
REMARK   61  A    between atoms: _148  and  _150
REMARK   62  A    between atoms: _150  and  _151
REMARK   63  A    between atoms: _150  and  _153
REMARK   64  A    between atoms: _153  and  _154
REMARK   65  A    between atoms: _154  and  _155
REMARK   66  A    between atoms: _157  and  _159
REMARK   67  A    between atoms: _159  and  _160
REMARK   68  A    between atoms: _159  and  _162
REMARK   69  A    between atoms: _162  and  _163
REMARK   70  A    between atoms: _168  and  _169
REMARK   71  A    between atoms: _171  and  _173
REMARK   72  A    between atoms: _173  and  _174
REMARK   73  A    between atoms: _173  and  _176
REMARK   74  A    between atoms: _176  and  _177
REMARK   75  A    between atoms: _180  and  _182
REMARK   76  A    between atoms: _182  and  _183
REMARK   77  A    between atoms: _182  and  _185
REMARK   78  A    between atoms: _188  and  _190
REMARK   79  A    between atoms: _190  and  _191
REMARK   80  A    between atoms: _194  and  _196
REMARK   81  A    between atoms: _196  and  _197
REMARK   82  A    between atoms: _196  and  _199
REMARK   83  A    between atoms: _199  and  _200
REMARK   84  A    between atoms: _203  and  _205
REMARK   85  A    between atoms: _205  and  _206
REMARK   86  A    between atoms: _205  and  _208
REMARK   87  A    between atoms: _212  and  _213
REMARK   88  A    between atoms: _218  and  _220
REMARK   89  A    between atoms: _220  and  _221
REMARK   90  A    between atoms: _220  and  _223
REMARK   91  A    between atoms: _223  and  _224
REMARK   92  A    between atoms: _227  and  _229
REMARK   93  A    between atoms: _229  and  _230
REMARK   94  A    between atoms: _229  and  _232
REMARK   95  A    between atoms: _232  and  _233
REMARK   96  A    between atoms: _239  and  _241
REMARK   97  A    between atoms: _241  and  _242
REMARK   98  A    between atoms: _241  and  _244
REMARK   99  A    between atoms: _244  and  _245
REMARK  100  A    between atoms: _248  and  _250
REMARK  101  A    between atoms: _250  and  _251
REMARK  102  A    between atoms: _250  and  _253
REMARK  103  A    between atoms: _256  and  _257
REMARK  104  A    between atoms: _262  and  _264
REMARK  105  A    between atoms: _264  and  _265
REMARK  106  A    between atoms: _264  and  _267
REMARK  107  A    between atoms: _267  and  _268
REMARK  108  A    between atoms: _273  and  _274
REMARK  109  A    between atoms: _276  and  _278
REMARK  110  A    between atoms: _278  and  _279
REMARK  111  A    between atoms: _278  and  _281
REMARK  112  A    between atoms: _281  and  _282
REMARK  113  A    between atoms: _287  and  _288
REMARK  114  A    between atoms: _290  and  _292
REMARK  115  A    between atoms: _292  and  _293
REMARK  116  A    between atoms: _292  and  _295
REMARK  117  A    between atoms: _295  and  _296
REMARK  118  A    between atoms: _299  and  _301
REMARK  119  A    between atoms: _301  and  _302
REMARK  120  A    between atoms: _301  and  _304
REMARK  121  A    between atoms: _304  and  _305
REMARK  122  A    between atoms: _307  and  _309
REMARK  123  A    between atoms: _309  and  _310
REMARK  124  A    between atoms: _309  and  _312
REMARK  125  A    between atoms: _312  and  _313
REMARK  126  A    between atoms: _313  and  _314
REMARK  127  A    between atoms: _314  and  _315
REMARK  128  A    between atoms: _324  and  _326
REMARK  129  A    between atoms: _326  and  _327
REMARK  130  A    between atoms: _329  and  _331
REMARK  131  A    between atoms: _331  and  _332
REMARK  132  A    between atoms: _331  and  _334
REMARK  133  A    between atoms: _337  and  _339
REMARK  134  A    between atoms: _339  and  _340
REMARK  135  A    between atoms: _339  and  _342
REMARK  136  A    between atoms: _342  and  _343
REMARK  137  A    between atoms: _346  and  _348
REMARK  138  A    between atoms: _348  and  _349
REMARK  139  A    between atoms: _351  and  _353
REMARK  140  A    between atoms: _353  and  _354
REMARK  141  A    between atoms: _353  and  _356
REMARK  142  A    between atoms: _356  and  _357
REMARK  143  A    between atoms: _360  and  _362
REMARK  144  A    between atoms: _362  and  _363
REMARK  145  A    between atoms: _362  and  _365
REMARK  146  A    between atoms: _365  and  _366
REMARK  147  A    between atoms: _366  and  _367
REMARK  148  A    between atoms: _372  and  _374
REMARK  149  A    between atoms: _374  and  _375
REMARK  150  A    between atoms: _377  and  _379
REMARK  151  A    between atoms: _379  and  _380
REMARK  152  A    between atoms: _379  and  _382
REMARK  153  A    between atoms: _382  and  _383
REMARK  154  A    between atoms: _389  and  _391
REMARK  155  A    between atoms: _391  and  _392
REMARK  156  A    between atoms: _394  and  _396
REMARK  157  A    between atoms: _396  and  _397
REMARK  158  A    between atoms: _396  and  _399
REMARK  159  A    between atoms: _399  and  _400
REMARK  160  A    between atoms: _403  and  _405
REMARK  161  A    between atoms: _405  and  _406
REMARK  162  A    between atoms: _405  and  _408
REMARK  163  A    between atoms: _408  and  _409
REMARK  164  A    between atoms: _411  and  _413
REMARK  165  A    between atoms: _413  and  _414
REMARK  166  A    between atoms: _413  and  _416
REMARK  167  A    between atoms: _416  and  _417
REMARK  168  A    between atoms: _417  and  _418
REMARK  169  A    between atoms: _423  and  _425
REMARK  170  A    between atoms: _425  and  _426
REMARK  171  A    between atoms: _429  and  _431
REMARK  172  A    between atoms: _431  and  _432
REMARK  173  A    between atoms: _431  and  _434
REMARK  174  A    between atoms: _434  and  _435
REMARK  175  A    between atoms: _438  and  _440
REMARK  176  A    between atoms: _440  and  _441
REMARK  177  A    between atoms: _440  and  _443
REMARK  178  A    between atoms: _443  and  _444
REMARK  179  A    between atoms: _446  and  _448
REMARK  180  A    between atoms: _448  and  _449
REMARK  181  A    between atoms: _451  and  _453
REMARK  182  A    between atoms: _453  and  _454
REMARK  183  A    between atoms: _453  and  _456
REMARK  184  A    between atoms: _456  and  _457
REMARK  185  A    between atoms: _459  and  _461
REMARK  186  A    between atoms: _461  and  _462
REMARK  187  A    between atoms: _465  and  _467
REMARK  188  A    between atoms: _467  and  _468
REMARK  189  A    between atoms: _467  and  _470
REMARK  190  A    between atoms: _470  and  _471
REMARK  191  A    between atoms: _474  and  _476
REMARK  192  A    between atoms: _476  and  _477
REMARK  193  A    between atoms: _476  and  _479
REMARK  194  A    between atoms: _482  and  _484
REMARK  195  A    between atoms: _484  and  _485
REMARK  196  A    between atoms: _488  and  _490
REMARK  197  A    between atoms: _490  and  _491
REMARK  198  A    between atoms: _490  and  _493
REMARK  199  A    between atoms: _497  and  _498
REMARK  200  A    between atoms: _503  and  _505
REMARK  201  A    between atoms: _505  and  _506
REMARK  202  A    between atoms: _505  and  _508
REMARK  203  A    between atoms: _508  and  _509
REMARK  204  A    between atoms: _509  and  _510
REMARK  205  A    between atoms: _515  and  _517
REMARK  206  A    between atoms: _517  and  _518
REMARK  207  A    between atoms: _517  and  _520
REMARK  208  A    between atoms: _520  and  _521
REMARK  209  A    between atoms: _524  and  _526
REMARK  210  A    between atoms: _526  and  _527
REMARK  211  A    between atoms: _526  and  _529
REMARK  212  A    between atoms: _529  and  _530
REMARK  213  A    between atoms: _533  and  _535
REMARK  214  A    between atoms: _535  and  _536
REMARK  215  A    between atoms: _535  and  _538
REMARK  216  A    between atoms: _538  and  _539
REMARK                            x       y       z     vdW  Elec       q    Type
REMARK                         _______ _______ _______ _____ _____    ______ ____
ROOT
ATOM      1  O   HOH     1      54.301  20.838  10.469  0.00  0.00    +0.000 OA
ENDROOT
TORSDOF 0
REMARK  Name = ../refined-set-2016/2cli/2cli_pocket.pdb
REMARK  216 active torsions:
REMARK  status: ('A' for Active; 'I' for Inactive)
REMARK    1  A    between atoms: _1  and  _3
REMARK    2  A    between atoms: _3  and  _4
REMARK    3  A    between atoms: _3  and  _6
REMARK    4  A    between atoms: _10  and  _11
REMARK    5  A    between atoms: _16  and  _18
REMARK    6  A    between atoms: _18  and  _19
REMARK    7  A    between atoms: _18  and  _21
REMARK    8  A    between atoms: _21  and  _22
REMARK    9  A    between atoms: _28  and  _30
REMARK   10  A    between atoms: _30  and  _31
REMARK   11  A    between atoms: _30  and  _33
REMARK   12  A    between atoms: _36  and  _38
REMARK   13  A    between atoms: _38  and  _39
REMARK   14  A    between atoms: _38  and  _41
REMARK   15  A    between atoms: _41  and  _42
REMARK   16  A    between atoms: _45  and  _47
REMARK   17  A    between atoms: _47  and  _48
REMARK   18  A    between atoms: _47  and  _50
REMARK   19  A    between atoms: _50  and  _51
REMARK   20  A    between atoms: _54  and  _56
REMARK   21  A    between atoms: _56  and  _57
REMARK   22  A    between atoms: _56  and  _59
REMARK   23  A    between atoms: _59  and  _60
REMARK   24  A    between atoms: _60  and  _61
REMARK   25  A    between atoms: _64  and  _66
REMARK   26  A    between atoms: _66  and  _67
REMARK   27  A    between atoms: _66  and  _69
REMARK   28  A    between atoms: _69  and  _70
REMARK   29  A    between atoms: _73  and  _75
REMARK   30  A    between atoms: _75  and  _76
REMARK   31  A    between atoms: _78  and  _80
REMARK   32  A    between atoms: _80  and  _81
REMARK   33  A    between atoms: _80  and  _83
REMARK   34  A    between atoms: _83  and  _84
REMARK   35  A    between atoms: _87  and  _89
REMARK   36  A    between atoms: _89  and  _90
REMARK   37  A    between atoms: _93  and  _95
REMARK   38  A    between atoms: _95  and  _96
REMARK   39  A    between atoms: _95  and  _98
REMARK   40  A    between atoms: _98  and  _99
REMARK   41  A    between atoms: _102  and  _104
REMARK   42  A    between atoms: _104  and  _105
REMARK   43  A    between atoms: _107  and  _109
REMARK   44  A    between atoms: _109  and  _110
REMARK   45  A    between atoms: _109  and  _112
REMARK   46  A    between atoms: _112  and  _113
REMARK   47  A    between atoms: _116  and  _118
REMARK   48  A    between atoms: _118  and  _119
REMARK   49  A    between atoms: _118  and  _121
REMARK   50  A    between atoms: _121  and  _122
REMARK   51  A    between atoms: _125  and  _127
REMARK   52  A    between atoms: _127  and  _128
REMARK   53  A    between atoms: _130  and  _132
REMARK   54  A    between atoms: _132  and  _133
REMARK   55  A    between atoms: _132  and  _135
REMARK   56  A    between atoms: _135  and  _136
REMARK   57  A    between atoms: _139  and  _141
REMARK   58  A    between atoms: _141  and  _142
REMARK   59  A    between atoms: _141  and  _144
REMARK   60  A    between atoms: _144  and  _145
REMARK   61  A    between atoms: _148  and  _150
REMARK   62  A    between atoms: _150  and  _151
REMARK   63  A    between atoms: _150  and  _153
REMARK   64  A    between atoms: _153  and  _154
REMARK   65  A    between atoms: _154  and  _155
REMARK   66  A    between atoms: _157  and  _159
REMARK   67  A    between atoms: _159  and  _160
REMARK   68  A    between atoms: _159  and  _162
REMARK   69  A    between atoms: _162  and  _163
REMARK   70  A    between atoms: _168  and  _169
REMARK   71  A    between atoms: _171  and  _173
REMARK   72  A    between atoms: _173  and  _174
REMARK   73  A    between atoms: _173  and  _176
REMARK   74  A    between atoms: _176  and  _177
REMARK   75  A    between atoms: _180  and  _182
REMARK   76  A    between atoms: _182  and  _183
REMARK   77  A    between atoms: _182  and  _185
REMARK   78  A    between atoms: _188  and  _190
REMARK   79  A    between atoms: _190  and  _191
REMARK   80  A    between atoms: _194  and  _196
REMARK   81  A    between atoms: _196  and  _197
REMARK   82  A    between atoms: _196  and  _199
REMARK   83  A    between atoms: _199  and  _200
REMARK   84  A    between atoms: _203  and  _205
REMARK   85  A    between atoms: _205  and  _206
REMARK   86  A    between atoms: _205  and  _208
REMARK   87  A    between atoms: _212  and  _213
REMARK   88  A    between atoms: _218  and  _220
REMARK   89  A    between atoms: _220  and  _221
REMARK   90  A    between atoms: _220  and  _223
REMARK   91  A    between atoms: _223  and  _224
REMARK   92  A    between atoms: _227  and  _229
REMARK   93  A    between atoms: _229  and  _230
REMARK   94  A    between atoms: _229  and  _232
REMARK   95  A    between atoms: _232  and  _233
REMARK   96  A    between atoms: _239  and  _241
REMARK   97  A    between atoms: _241  and  _242
REMARK   98  A    between atoms: _241  and  _244
REMARK   99  A    between atoms: _244  and  _245
REMARK  100  A    between atoms: _248  and  _250
REMARK  101  A    between atoms: _250  and  _251
REMARK  102  A    between atoms: _250  and  _253
REMARK  103  A    between atoms: _256  and  _257
REMARK  104  A    between atoms: _262  and  _264
REMARK  105  A    between atoms: _264  and  _265
REMARK  106  A    between atoms: _264  and  _267
REMARK  107  A    between atoms: _267  and  _268
REMARK  108  A    between atoms: _273  and  _274
REMARK  109  A    between atoms: _276  and  _278
REMARK  110  A    between atoms: _278  and  _279
REMARK  111  A    between atoms: _278  and  _281
REMARK  112  A    between atoms: _281  and  _282
REMARK  113  A    between atoms: _287  and  _288
REMARK  114  A    between atoms: _290  and  _292
REMARK  115  A    between atoms: _292  and  _293
REMARK  116  A    between atoms: _292  and  _295
REMARK  117  A    between atoms: _295  and  _296
REMARK  118  A    between atoms: _299  and  _301
REMARK  119  A    between atoms: _301  and  _302
REMARK  120  A    between atoms: _301  and  _304
REMARK  121  A    between atoms: _304  and  _305
REMARK  122  A    between atoms: _307  and  _309
REMARK  123  A    between atoms: _309  and  _310
REMARK  124  A    between atoms: _309  and  _312
REMARK  125  A    between atoms: _312  and  _313
REMARK  126  A    between atoms: _313  and  _314
REMARK  127  A    between atoms: _314  and  _315
REMARK  128  A    between atoms: _324  and  _326
REMARK  129  A    between atoms: _326  and  _327
REMARK  130  A    between atoms: _329  and  _331
REMARK  131  A    between atoms: _331  and  _332
REMARK  132  A    between atoms: _331  and  _334
REMARK  133  A    between atoms: _337  and  _339
REMARK  134  A    between atoms: _339  and  _340
REMARK  135  A    between atoms: _339  and  _342
REMARK  136  A    between atoms: _342  and  _343
REMARK  137  A    between atoms: _346  and  _348
REMARK  138  A    between atoms: _348  and  _349
REMARK  139  A    between atoms: _351  and  _353
REMARK  140  A    between atoms: _353  and  _354
REMARK  141  A    between atoms: _353  and  _356
REMARK  142  A    between atoms: _356  and  _357
REMARK  143  A    between atoms: _360  and  _362
REMARK  144  A    between atoms: _362  and  _363
REMARK  145  A    between atoms: _362  and  _365
REMARK  146  A    between atoms: _365  and  _366
REMARK  147  A    between atoms: _366  and  _367
REMARK  148  A    between atoms: _372  and  _374
REMARK  149  A    between atoms: _374  and  _375
REMARK  150  A    between atoms: _377  and  _379
REMARK  151  A    between atoms: _379  and  _380
REMARK  152  A    between atoms: _379  and  _382
REMARK  153  A    between atoms: _382  and  _383
REMARK  154  A    between atoms: _389  and  _391
REMARK  155  A    between atoms: _391  and  _392
REMARK  156  A    between atoms: _394  and  _396
REMARK  157  A    between atoms: _396  and  _397
REMARK  158  A    between atoms: _396  and  _399
REMARK  159  A    between atoms: _399  and  _400
REMARK  160  A    between atoms: _403  and  _405
REMARK  161  A    between atoms: _405  and  _406
REMARK  162  A    between atoms: _405  and  _408
REMARK  163  A    between atoms: _408  and  _409
REMARK  164  A    between atoms: _411  and  _413
REMARK  165  A    between atoms: _413  and  _414
REMARK  166  A    between atoms: _413  and  _416
REMARK  167  A    between atoms: _416  and  _417
REMARK  168  A    between atoms: _417  and  _418
REMARK  169  A    between atoms: _423  and  _425
REMARK  170  A    between atoms: _425  and  _426
REMARK  171  A    between atoms: _429  and  _431
REMARK  172  A    between atoms: _431  and  _432
REMARK  173  A    between atoms: _431  and  _434
REMARK  174  A    between atoms: _434  and  _435
REMARK  175  A    between atoms: _438  and  _440
REMARK  176  A    between atoms: _440  and  _441
REMARK  177  A    between atoms: _440  and  _443
REMARK  178  A    between atoms: _443  and  _444
REMARK  179  A    between atoms: _446  and  _448
REMARK  180  A    between atoms: _448  and  _449
REMARK  181  A    between atoms: _451  and  _453
REMARK  182  A    between atoms: _453  and  _454
REMARK  183  A    between atoms: _453  and  _456
REMARK  184  A    between atoms: _456  and  _457
REMARK  185  A    between atoms: _459  and  _461
REMARK  186  A    between atoms: _461  and  _462
REMARK  187  A    between atoms: _465  and  _467
REMARK  188  A    between atoms: _467  and  _468
REMARK  189  A    between atoms: _467  and  _470
REMARK  190  A    between atoms: _470  and  _471
REMARK  191  A    between atoms: _474  and  _476
REMARK  192  A    between atoms: _476  and  _477
REMARK  193  A    between atoms: _476  and  _479
REMARK  194  A    between atoms: _482  and  _484
REMARK  195  A    between atoms: _484  and  _485
REMARK  196  A    between atoms: _488  and  _490
REMARK  197  A    between atoms: _490  and  _491
REMARK  198  A    between atoms: _490  and  _493
REMARK  199  A    between atoms: _497  and  _498
REMARK  200  A    between atoms: _503  and  _505
REMARK  201  A    between atoms: _505  and  _506
REMARK  202  A    between atoms: _505  and  _508
REMARK  203  A    between atoms: _508  and  _509
REMARK  204  A    between atoms: _509  and  _510
REMARK  205  A    between atoms: _515  and  _517
REMARK  206  A    between atoms: _517  and  _518
REMARK  207  A    between atoms: _517  and  _520
REMARK  208  A    between atoms: _520  and  _521
REMARK  209  A    between atoms: _524  and  _526
REMARK  210  A    between atoms: _526  and  _527
REMARK  211  A    between atoms: _526  and  _529
REMARK  212  A    between atoms: _529  and  _530
REMARK  213  A    between atoms: _533  and  _535
REMARK  214  A    between atoms: _535  and  _536
REMARK  215  A    between atoms: _535  and  _538
REMARK  216  A    between atoms: _538  and  _539
REMARK                            x       y       z     vdW  Elec       q    Type
REMARK                         _______ _______ _______ _____ _____    ______ ____
ROOT
ATOM      1  O   HOH     1      53.527  30.841   9.296  0.00  0.00    +0.000 OA
ENDROOT
TORSDOF 0
REMARK  Name = ../refined-set-2016/2cli/2cli_pocket.pdb
REMARK  216 active torsions:
REMARK  status: ('A' for Active; 'I' for Inactive)
REMARK    1  A    between atoms: _1  and  _3
REMARK    2  A    between atoms: _3  and  _4
REMARK    3  A    between atoms: _3  and  _6
REMARK    4  A    between atoms: _10  and  _11
REMARK    5  A    between atoms: _16  and  _18
REMARK    6  A    between atoms: _18  and  _19
REMARK    7  A    between atoms: _18  and  _21
REMARK    8  A    between atoms: _21  and  _22
REMARK    9  A    between atoms: _28  and  _30
REMARK   10  A    between atoms: _30  and  _31
REMARK   11  A    between atoms: _30  and  _33
REMARK   12  A    between atoms: _36  and  _38
REMARK   13  A    between atoms: _38  and  _39
REMARK   14  A    between atoms: _38  and  _41
REMARK   15  A    between atoms: _41  and  _42
REMARK   16  A    between atoms: _45  and  _47
REMARK   17  A    between atoms: _47  and  _48
REMARK   18  A    between atoms: _47  and  _50
REMARK   19  A    between atoms: _50  and  _51
REMARK   20  A    between atoms: _54  and  _56
REMARK   21  A    between atoms: _56  and  _57
REMARK   22  A    between atoms: _56  and  _59
REMARK   23  A    between atoms: _59  and  _60
REMARK   24  A    between atoms: _60  and  _61
REMARK   25  A    between atoms: _64  and  _66
REMARK   26  A    between atoms: _66  and  _67
REMARK   27  A    between atoms: _66  and  _69
REMARK   28  A    between atoms: _69  and  _70
REMARK   29  A    between atoms: _73  and  _75
REMARK   30  A    between atoms: _75  and  _76
REMARK   31  A    between atoms: _78  and  _80
REMARK   32  A    between atoms: _80  and  _81
REMARK   33  A    between atoms: _80  and  _83
REMARK   34  A    between atoms: _83  and  _84
REMARK   35  A    between atoms: _87  and  _89
REMARK   36  A    between atoms: _89  and  _90
REMARK   37  A    between atoms: _93  and  _95
REMARK   38  A    between atoms: _95  and  _96
REMARK   39  A    between atoms: _95  and  _98
REMARK   40  A    between atoms: _98  and  _99
REMARK   41  A    between atoms: _102  and  _104
REMARK   42  A    between atoms: _104  and  _105
REMARK   43  A    between atoms: _107  and  _109
REMARK   44  A    between atoms: _109  and  _110
REMARK   45  A    between atoms: _109  and  _112
REMARK   46  A    between atoms: _112  and  _113
REMARK   47  A    between atoms: _116  and  _118
REMARK   48  A    between atoms: _118  and  _119
REMARK   49  A    between atoms: _118  and  _121
REMARK   50  A    between atoms: _121  and  _122
REMARK   51  A    between atoms: _125  and  _127
REMARK   52  A    between atoms: _127  and  _128
REMARK   53  A    between atoms: _130  and  _132
REMARK   54  A    between atoms: _132  and  _133
REMARK   55  A    between atoms: _132  and  _135
REMARK   56  A    between atoms: _135  and  _136
REMARK   57  A    between atoms: _139  and  _141
REMARK   58  A    between atoms: _141  and  _142
REMARK   59  A    between atoms: _141  and  _144
REMARK   60  A    between atoms: _144  and  _145
REMARK   61  A    between atoms: _148  and  _150
REMARK   62  A    between atoms: _150  and  _151
REMARK   63  A    between atoms: _150  and  _153
REMARK   64  A    between atoms: _153  and  _154
REMARK   65  A    between atoms: _154  and  _155
REMARK   66  A    between atoms: _157  and  _159
REMARK   67  A    between atoms: _159  and  _160
REMARK   68  A    between atoms: _159  and  _162
REMARK   69  A    between atoms: _162  and  _163
REMARK   70  A    between atoms: _168  and  _169
REMARK   71  A    between atoms: _171  and  _173
REMARK   72  A    between atoms: _173  and  _174
REMARK   73  A    between atoms: _173  and  _176
REMARK   74  A    between atoms: _176  and  _177
REMARK   75  A    between atoms: _180  and  _182
REMARK   76  A    between atoms: _182  and  _183
REMARK   77  A    between atoms: _182  and  _185
REMARK   78  A    between atoms: _188  and  _190
REMARK   79  A    between atoms: _190  and  _191
REMARK   80  A    between atoms: _194  and  _196
REMARK   81  A    between atoms: _196  and  _197
REMARK   82  A    between atoms: _196  and  _199
REMARK   83  A    between atoms: _199  and  _200
REMARK   84  A    between atoms: _203  and  _205
REMARK   85  A    between atoms: _205  and  _206
REMARK   86  A    between atoms: _205  and  _208
REMARK   87  A    between atoms: _212  and  _213
REMARK   88  A    between atoms: _218  and  _220
REMARK   89  A    between atoms: _220  and  _221
REMARK   90  A    between atoms: _220  and  _223
REMARK   91  A    between atoms: _223  and  _224
REMARK   92  A    between atoms: _227  and  _229
REMARK   93  A    between atoms: _229  and  _230
REMARK   94  A    between atoms: _229  and  _232
REMARK   95  A    between atoms: _232  and  _233
REMARK   96  A    between atoms: _239  and  _241
REMARK   97  A    between atoms: _241  and  _242
REMARK   98  A    between atoms: _241  and  _244
REMARK   99  A    between atoms: _244  and  _245
REMARK  100  A    between atoms: _248  and  _250
REMARK  101  A    between atoms: _250  and  _251
REMARK  102  A    between atoms: _250  and  _253
REMARK  103  A    between atoms: _256  and  _257
REMARK  104  A    between atoms: _262  and  _264
REMARK  105  A    between atoms: _264  and  _265
REMARK  106  A    between atoms: _264  and  _267
REMARK  107  A    between atoms: _267  and  _268
REMARK  108  A    between atoms: _273  and  _274
REMARK  109  A    between atoms: _276  and  _278
REMARK  110  A    between atoms: _278  and  _279
REMARK  111  A    between atoms: _278  and  _281
REMARK  112  A    between atoms: _281  and  _282
REMARK  113  A    between atoms: _287  and  _288
REMARK  114  A    between atoms: _290  and  _292
REMARK  115  A    between atoms: _292  and  _293
REMARK  116  A    between atoms: _292  and  _295
REMARK  117  A    between atoms: _295  and  _296
REMARK  118  A    between atoms: _299  and  _301
REMARK  119  A    between atoms: _301  and  _302
REMARK  120  A    between atoms: _301  and  _304
REMARK  121  A    between atoms: _304  and  _305
REMARK  122  A    between atoms: _307  and  _309
REMARK  123  A    between atoms: _309  and  _310
REMARK  124  A    between atoms: _309  and  _312
REMARK  125  A    between atoms: _312  and  _313
REMARK  126  A    between atoms: _313  and  _314
REMARK  127  A    between atoms: _314  and  _315
REMARK  128  A    between atoms: _324  and  _326
REMARK  129  A    between atoms: _326  and  _327
REMARK  130  A    between atoms: _329  and  _331
REMARK  131  A    between atoms: _331  and  _332
REMARK  132  A    between atoms: _331  and  _334
REMARK  133  A    between atoms: _337  and  _339
REMARK  134  A    between atoms: _339  and  _340
REMARK  135  A    between atoms: _339  and  _342
REMARK  136  A    between atoms: _342  and  _343
REMARK  137  A    between atoms: _346  and  _348
REMARK  138  A    between atoms: _348  and  _349
REMARK  139  A    between atoms: _351  and  _353
REMARK  140  A    between atoms: _353  and  _354
REMARK  141  A    between atoms: _353  and  _356
REMARK  142  A    between atoms: _356  and  _357
REMARK  143  A    between atoms: _360  and  _362
REMARK  144  A    between atoms: _362  and  _363
REMARK  145  A    between atoms: _362  and  _365
REMARK  146  A    between atoms: _365  and  _366
REMARK  147  A    between atoms: _366  and  _367
REMARK  148  A    between atoms: _372  and  _374
REMARK  149  A    between atoms: _374  and  _375
REMARK  150  A    between atoms: _377  and  _379
REMARK  151  A    between atoms: _379  and  _380
REMARK  152  A    between atoms: _379  and  _382
REMARK  153  A    between atoms: _382  and  _383
REMARK  154  A    between atoms: _389  and  _391
REMARK  155  A    between atoms: _391  and  _392
REMARK  156  A    between atoms: _394  and  _396
REMARK  157  A    between atoms: _396  and  _397
REMARK  158  A    between atoms: _396  and  _399
REMARK  159  A    between atoms: _399  and  _400
REMARK  160  A    between atoms: _403  and  _405
REMARK  161  A    between atoms: _405  and  _406
REMARK  162  A    between atoms: _405  and  _408
REMARK  163  A    between atoms: _408  and  _409
REMARK  164  A    between atoms: _411  and  _413
REMARK  165  A    between atoms: _413  and  _414
REMARK  166  A    between atoms: _413  and  _416
REMARK  167  A    between atoms: _416  and  _417
REMARK  168  A    between atoms: _417  and  _418
REMARK  169  A    between atoms: _423  and  _425
REMARK  170  A    between atoms: _425  and  _426
REMARK  171  A    between atoms: _429  and  _431
REMARK  172  A    between atoms: _431  and  _432
REMARK  173  A    between atoms: _431  and  _434
REMARK  174  A    between atoms: _434  and  _435
REMARK  175  A    between atoms: _438  and  _440
REMARK  176  A    between atoms: _440  and  _441
REMARK  177  A    between atoms: _440  and  _443
REMARK  178  A    between atoms: _443  and  _444
REMARK  179  A    between atoms: _446  and  _448
REMARK  180  A    between atoms: _448  and  _449
REMARK  181  A    between atoms: _451  and  _453
REMARK  182  A    between atoms: _453  and  _454
REMARK  183  A    between atoms: _453  and  _456
REMARK  184  A    between atoms: _456  and  _457
REMARK  185  A    between atoms: _459  and  _461
REMARK  186  A    between atoms: _461  and  _462
REMARK  187  A    between atoms: _465  and  _467
REMARK  188  A    between atoms: _467  and  _468
REMARK  189  A    between atoms: _467  and  _470
REMARK  190  A    between atoms: _470  and  _471
REMARK  191  A    between atoms: _474  and  _476
REMARK  192  A    between atoms: _476  and  _477
REMARK  193  A    between atoms: _476  and  _479
REMARK  194  A    between atoms: _482  and  _484
REMARK  195  A    between atoms: _484  and  _485
REMARK  196  A    between atoms: _488  and  _490
REMARK  197  A    between atoms: _490  and  _491
REMARK  198  A    between atoms: _490  and  _493
REMARK  199  A    between atoms: _497  and  _498
REMARK  200  A    between atoms: _503  and  _505
REMARK  201  A    between atoms: _505  and  _506
REMARK  202  A    between atoms: _505  and  _508
REMARK  203  A    between atoms: _508  and  _509
REMARK  204  A    between atoms: _509  and  _510
REMARK  205  A    between atoms: _515  and  _517
REMARK  206  A    between atoms: _517  and  _518
REMARK  207  A    between atoms: _517  and  _520
REMARK  208  A    between atoms: _520  and  _521
REMARK  209  A    between atoms: _524  and  _526
REMARK  210  A    between atoms: _526  and  _527
REMARK  211  A    between atoms: _526  and  _529
REMARK  212  A    between atoms: _529  and  _530
REMARK  213  A    between atoms: _533  and  _535
REMARK  214  A    between atoms: _535  and  _536
REMARK  215  A    between atoms: _535  and  _538
REMARK  216  A    between atoms: _538  and  _539
REMARK                            x       y       z     vdW  Elec       q    Type
REMARK                         _______ _______ _______ _____ _____    ______ ____
ROOT
ATOM      1  O   HOH     1      44.733  28.594   9.458  0.00  0.00    +0.000 OA
ENDROOT
TORSDOF 0
REMARK  Name = ../refined-set-2016/2cli/2cli_pocket.pdb
REMARK  216 active torsions:
REMARK  status: ('A' for Active; 'I' for Inactive)
REMARK    1  A    between atoms: _1  and  _3
REMARK    2  A    between atoms: _3  and  _4
REMARK    3  A    between atoms: _3  and  _6
REMARK    4  A    between atoms: _10  and  _11
REMARK    5  A    between atoms: _16  and  _18
REMARK    6  A    between atoms: _18  and  _19
REMARK    7  A    between atoms: _18  and  _21
REMARK    8  A    between atoms: _21  and  _22
REMARK    9  A    between atoms: _28  and  _30
REMARK   10  A    between atoms: _30  and  _31
REMARK   11  A    between atoms: _30  and  _33
REMARK   12  A    between atoms: _36  and  _38
REMARK   13  A    between atoms: _38  and  _39
REMARK   14  A    between atoms: _38  and  _41
REMARK   15  A    between atoms: _41  and  _42
REMARK   16  A    between atoms: _45  and  _47
REMARK   17  A    between atoms: _47  and  _48
REMARK   18  A    between atoms: _47  and  _50
REMARK   19  A    between atoms: _50  and  _51
REMARK   20  A    between atoms: _54  and  _56
REMARK   21  A    between atoms: _56  and  _57
REMARK   22  A    between atoms: _56  and  _59
REMARK   23  A    between atoms: _59  and  _60
REMARK   24  A    between atoms: _60  and  _61
REMARK   25  A    between atoms: _64  and  _66
REMARK   26  A    between atoms: _66  and  _67
REMARK   27  A    between atoms: _66  and  _69
REMARK   28  A    between atoms: _69  and  _70
REMARK   29  A    between atoms: _73  and  _75
REMARK   30  A    between atoms: _75  and  _76
REMARK   31  A    between atoms: _78  and  _80
REMARK   32  A    between atoms: _80  and  _81
REMARK   33  A    between atoms: _80  and  _83
REMARK   34  A    between atoms: _83  and  _84
REMARK   35  A    between atoms: _87  and  _89
REMARK   36  A    between atoms: _89  and  _90
REMARK   37  A    between atoms: _93  and  _95
REMARK   38  A    between atoms: _95  and  _96
REMARK   39  A    between atoms: _95  and  _98
REMARK   40  A    between atoms: _98  and  _99
REMARK   41  A    between atoms: _102  and  _104
REMARK   42  A    between atoms: _104  and  _105
REMARK   43  A    between atoms: _107  and  _109
REMARK   44  A    between atoms: _109  and  _110
REMARK   45  A    between atoms: _109  and  _112
REMARK   46  A    between atoms: _112  and  _113
REMARK   47  A    between atoms: _116  and  _118
REMARK   48  A    between atoms: _118  and  _119
REMARK   49  A    between atoms: _118  and  _121
REMARK   50  A    between atoms: _121  and  _122
REMARK   51  A    between atoms: _125  and  _127
REMARK   52  A    between atoms: _127  and  _128
REMARK   53  A    between atoms: _130  and  _132
REMARK   54  A    between atoms: _132  and  _133
REMARK   55  A    between atoms: _132  and  _135
REMARK   56  A    between atoms: _135  and  _136
REMARK   57  A    between atoms: _139  and  _141
REMARK   58  A    between atoms: _141  and  _142
REMARK   59  A    between atoms: _141  and  _144
REMARK   60  A    between atoms: _144  and  _145
REMARK   61  A    between atoms: _148  and  _150
REMARK   62  A    between atoms: _150  and  _151
REMARK   63  A    between atoms: _150  and  _153
REMARK   64  A    between atoms: _153  and  _154
REMARK   65  A    between atoms: _154  and  _155
REMARK   66  A    between atoms: _157  and  _159
REMARK   67  A    between atoms: _159  and  _160
REMARK   68  A    between atoms: _159  and  _162
REMARK   69  A    between atoms: _162  and  _163
REMARK   70  A    between atoms: _168  and  _169
REMARK   71  A    between atoms: _171  and  _173
REMARK   72  A    between atoms: _173  and  _174
REMARK   73  A    between atoms: _173  and  _176
REMARK   74  A    between atoms: _176  and  _177
REMARK   75  A    between atoms: _180  and  _182
REMARK   76  A    between atoms: _182  and  _183
REMARK   77  A    between atoms: _182  and  _185
REMARK   78  A    between atoms: _188  and  _190
REMARK   79  A    between atoms: _190  and  _191
REMARK   80  A    between atoms: _194  and  _196
REMARK   81  A    between atoms: _196  and  _197
REMARK   82  A    between atoms: _196  and  _199
REMARK   83  A    between atoms: _199  and  _200
REMARK   84  A    between atoms: _203  and  _205
REMARK   85  A    between atoms: _205  and  _206
REMARK   86  A    between atoms: _205  and  _208
REMARK   87  A    between atoms: _212  and  _213
REMARK   88  A    between atoms: _218  and  _220
REMARK   89  A    between atoms: _220  and  _221
REMARK   90  A    between atoms: _220  and  _223
REMARK   91  A    between atoms: _223  and  _224
REMARK   92  A    between atoms: _227  and  _229
REMARK   93  A    between atoms: _229  and  _230
REMARK   94  A    between atoms: _229  and  _232
REMARK   95  A    between atoms: _232  and  _233
REMARK   96  A    between atoms: _239  and  _241
REMARK   97  A    between atoms: _241  and  _242
REMARK   98  A    between atoms: _241  and  _244
REMARK   99  A    between atoms: _244  and  _245
REMARK  100  A    between atoms: _248  and  _250
REMARK  101  A    between atoms: _250  and  _251
REMARK  102  A    between atoms: _250  and  _253
REMARK  103  A    between atoms: _256  and  _257
REMARK  104  A    between atoms: _262  and  _264
REMARK  105  A    between atoms: _264  and  _265
REMARK  106  A    between atoms: _264  and  _267
REMARK  107  A    between atoms: _267  and  _268
REMARK  108  A    between atoms: _273  and  _274
REMARK  109  A    between atoms: _276  and  _278
REMARK  110  A    between atoms: _278  and  _279
REMARK  111  A    between atoms: _278  and  _281
REMARK  112  A    between atoms: _281  and  _282
REMARK  113  A    between atoms: _287  and  _288
REMARK  114  A    between atoms: _290  and  _292
REMARK  115  A    between atoms: _292  and  _293
REMARK  116  A    between atoms: _292  and  _295
REMARK  117  A    between atoms: _295  and  _296
REMARK  118  A    between atoms: _299  and  _301
REMARK  119  A    between atoms: _301  and  _302
REMARK  120  A    between atoms: _301  and  _304
REMARK  121  A    between atoms: _304  and  _305
REMARK  122  A    between atoms: _307  and  _309
REMARK  123  A    between atoms: _309  and  _310
REMARK  124  A    between atoms: _309  and  _312
REMARK  125  A    between atoms: _312  and  _313
REMARK  126  A    between atoms: _313  and  _314
REMARK  127  A    between atoms: _314  and  _315
REMARK  128  A    between atoms: _324  and  _326
REMARK  129  A    between atoms: _326  and  _327
REMARK  130  A    between atoms: _329  and  _331
REMARK  131  A    between atoms: _331  and  _332
REMARK  132  A    between atoms: _331  and  _334
REMARK  133  A    between atoms: _337  and  _339
REMARK  134  A    between atoms: _339  and  _340
REMARK  135  A    between atoms: _339  and  _342
REMARK  136  A    between atoms: _342  and  _343
REMARK  137  A    between atoms: _346  and  _348
REMARK  138  A    between atoms: _348  and  _349
REMARK  139  A    between atoms: _351  and  _353
REMARK  140  A    between atoms: _353  and  _354
REMARK  141  A    between atoms: _353  and  _356
REMARK  142  A    between atoms: _356  and  _357
REMARK  143  A    between atoms: _360  and  _362
REMARK  144  A    between atoms: _362  and  _363
REMARK  145  A    between atoms: _362  and  _365
REMARK  146  A    between atoms: _365  and  _366
REMARK  147  A    between atoms: _366  and  _367
REMARK  148  A    between atoms: _372  and  _374
REMARK  149  A    between atoms: _374  and  _375
REMARK  150  A    between atoms: _377  and  _379
REMARK  151  A    between atoms: _379  and  _380
REMARK  152  A    between atoms: _379  and  _382
REMARK  153  A    between atoms: _382  and  _383
REMARK  154  A    between atoms: _389  and  _391
REMARK  155  A    between atoms: _391  and  _392
REMARK  156  A    between atoms: _394  and  _396
REMARK  157  A    between atoms: _396  and  _397
REMARK  158  A    between atoms: _396  and  _399
REMARK  159  A    between atoms: _399  and  _400
REMARK  160  A    between atoms: _403  and  _405
REMARK  161  A    between atoms: _405  and  _406
REMARK  162  A    between atoms: _405  and  _408
REMARK  163  A    between atoms: _408  and  _409
REMARK  164  A    between atoms: _411  and  _413
REMARK  165  A    between atoms: _413  and  _414
REMARK  166  A    between atoms: _413  and  _416
REMARK  167  A    between atoms: _416  and  _417
REMARK  168  A    between atoms: _417  and  _418
REMARK  169  A    between atoms: _423  and  _425
REMARK  170  A    between atoms: _425  and  _426
REMARK  171  A    between atoms: _429  and  _431
REMARK  172  A    between atoms: _431  and  _432
REMARK  173  A    between atoms: _431  and  _434
REMARK  174  A    between atoms: _434  and  _435
REMARK  175  A    between atoms: _438  and  _440
REMARK  176  A    between atoms: _440  and  _441
REMARK  177  A    between atoms: _440  and  _443
REMARK  178  A    between atoms: _443  and  _444
REMARK  179  A    between atoms: _446  and  _448
REMARK  180  A    between atoms: _448  and  _449
REMARK  181  A    between atoms: _451  and  _453
REMARK  182  A    between atoms: _453  and  _454
REMARK  183  A    between atoms: _453  and  _456
REMARK  184  A    between atoms: _456  and  _457
REMARK  185  A    between atoms: _459  and  _461
REMARK  186  A    between atoms: _461  and  _462
REMARK  187  A    between atoms: _465  and  _467
REMARK  188  A    between atoms: _467  and  _468
REMARK  189  A    between atoms: _467  and  _470
REMARK  190  A    between atoms: _470  and  _471
REMARK  191  A    between atoms: _474  and  _476
REMARK  192  A    between atoms: _476  and  _477
REMARK  193  A    between atoms: _476  and  _479
REMARK  194  A    between atoms: _482  and  _484
REMARK  195  A    between atoms: _484  and  _485
REMARK  196  A    between atoms: _488  and  _490
REMARK  197  A    between atoms: _490  and  _491
REMARK  198  A    between atoms: _490  and  _493
REMARK  199  A    between atoms: _497  and  _498
REMARK  200  A    between atoms: _503  and  _505
REMARK  201  A    between atoms: _505  and  _506
REMARK  202  A    between atoms: _505  and  _508
REMARK  203  A    between atoms: _508  and  _509
REMARK  204  A    between atoms: _509  and  _510
REMARK  205  A    between atoms: _515  and  _517
REMARK  206  A    between atoms: _517  and  _518
REMARK  207  A    between atoms: _517  and  _520
REMARK  208  A    between atoms: _520  and  _521
REMARK  209  A    between atoms: _524  and  _526
REMARK  210  A    between atoms: _526  and  _527
REMARK  211  A    between atoms: _526  and  _529
REMARK  212  A    between atoms: _529  and  _530
REMARK  213  A    between atoms: _533  and  _535
REMARK  214  A    between atoms: _535  and  _536
REMARK  215  A    between atoms: _535  and  _538
REMARK  216  A    between atoms: _538  and  _539
REMARK                            x       y       z     vdW  Elec       q    Type
REMARK                         _______ _______ _______ _____ _____    ______ ____
ROOT
ATOM      1  O   HOH     1      43.263  26.287   4.503  0.00  0.00    +0.000 OA
ENDROOT
TORSDOF 0
REMARK  Name = ../refined-set-2016/2cli/2cli_pocket.pdb
REMARK  216 active torsions:
REMARK  status: ('A' for Active; 'I' for Inactive)
REMARK    1  A    between atoms: _1  and  _3
REMARK    2  A    between atoms: _3  and  _4
REMARK    3  A    between atoms: _3  and  _6
REMARK    4  A    between atoms: _10  and  _11
REMARK    5  A    between atoms: _16  and  _18
REMARK    6  A    between atoms: _18  and  _19
REMARK    7  A    between atoms: _18  and  _21
REMARK    8  A    between atoms: _21  and  _22
REMARK    9  A    between atoms: _28  and  _30
REMARK   10  A    between atoms: _30  and  _31
REMARK   11  A    between atoms: _30  and  _33
REMARK   12  A    between atoms: _36  and  _38
REMARK   13  A    between atoms: _38  and  _39
REMARK   14  A    between atoms: _38  and  _41
REMARK   15  A    between atoms: _41  and  _42
REMARK   16  A    between atoms: _45  and  _47
REMARK   17  A    between atoms: _47  and  _48
REMARK   18  A    between atoms: _47  and  _50
REMARK   19  A    between atoms: _50  and  _51
REMARK   20  A    between atoms: _54  and  _56
REMARK   21  A    between atoms: _56  and  _57
REMARK   22  A    between atoms: _56  and  _59
REMARK   23  A    between atoms: _59  and  _60
REMARK   24  A    between atoms: _60  and  _61
REMARK   25  A    between atoms: _64  and  _66
REMARK   26  A    between atoms: _66  and  _67
REMARK   27  A    between atoms: _66  and  _69
REMARK   28  A    between atoms: _69  and  _70
REMARK   29  A    between atoms: _73  and  _75
REMARK   30  A    between atoms: _75  and  _76
REMARK   31  A    between atoms: _78  and  _80
REMARK   32  A    between atoms: _80  and  _81
REMARK   33  A    between atoms: _80  and  _83
REMARK   34  A    between atoms: _83  and  _84
REMARK   35  A    between atoms: _87  and  _89
REMARK   36  A    between atoms: _89  and  _90
REMARK   37  A    between atoms: _93  and  _95
REMARK   38  A    between atoms: _95  and  _96
REMARK   39  A    between atoms: _95  and  _98
REMARK   40  A    between atoms: _98  and  _99
REMARK   41  A    between atoms: _102  and  _104
REMARK   42  A    between atoms: _104  and  _105
REMARK   43  A    between atoms: _107  and  _109
REMARK   44  A    between atoms: _109  and  _110
REMARK   45  A    between atoms: _109  and  _112
REMARK   46  A    between atoms: _112  and  _113
REMARK   47  A    between atoms: _116  and  _118
REMARK   48  A    between atoms: _118  and  _119
REMARK   49  A    between atoms: _118  and  _121
REMARK   50  A    between atoms: _121  and  _122
REMARK   51  A    between atoms: _125  and  _127
REMARK   52  A    between atoms: _127  and  _128
REMARK   53  A    between atoms: _130  and  _132
REMARK   54  A    between atoms: _132  and  _133
REMARK   55  A    between atoms: _132  and  _135
REMARK   56  A    between atoms: _135  and  _136
REMARK   57  A    between atoms: _139  and  _141
REMARK   58  A    between atoms: _141  and  _142
REMARK   59  A    between atoms: _141  and  _144
REMARK   60  A    between atoms: _144  and  _145
REMARK   61  A    between atoms: _148  and  _150
REMARK   62  A    between atoms: _150  and  _151
REMARK   63  A    between atoms: _150  and  _153
REMARK   64  A    between atoms: _153  and  _154
REMARK   65  A    between atoms: _154  and  _155
REMARK   66  A    between atoms: _157  and  _159
REMARK   67  A    between atoms: _159  and  _160
REMARK   68  A    between atoms: _159  and  _162
REMARK   69  A    between atoms: _162  and  _163
REMARK   70  A    between atoms: _168  and  _169
REMARK   71  A    between atoms: _171  and  _173
REMARK   72  A    between atoms: _173  and  _174
REMARK   73  A    between atoms: _173  and  _176
REMARK   74  A    between atoms: _176  and  _177
REMARK   75  A    between atoms: _180  and  _182
REMARK   76  A    between atoms: _182  and  _183
REMARK   77  A    between atoms: _182  and  _185
REMARK   78  A    between atoms: _188  and  _190
REMARK   79  A    between atoms: _190  and  _191
REMARK   80  A    between atoms: _194  and  _196
REMARK   81  A    between atoms: _196  and  _197
REMARK   82  A    between atoms: _196  and  _199
REMARK   83  A    between atoms: _199  and  _200
REMARK   84  A    between atoms: _203  and  _205
REMARK   85  A    between atoms: _205  and  _206
REMARK   86  A    between atoms: _205  and  _208
REMARK   87  A    between atoms: _212  and  _213
REMARK   88  A    between atoms: _218  and  _220
REMARK   89  A    between atoms: _220  and  _221
REMARK   90  A    between atoms: _220  and  _223
REMARK   91  A    between atoms: _223  and  _224
REMARK   92  A    between atoms: _227  and  _229
REMARK   93  A    between atoms: _229  and  _230
REMARK   94  A    between atoms: _229  and  _232
REMARK   95  A    between atoms: _232  and  _233
REMARK   96  A    between atoms: _239  and  _241
REMARK   97  A    between atoms: _241  and  _242
REMARK   98  A    between atoms: _241  and  _244
REMARK   99  A    between atoms: _244  and  _245
REMARK  100  A    between atoms: _248  and  _250
REMARK  101  A    between atoms: _250  and  _251
REMARK  102  A    between atoms: _250  and  _253
REMARK  103  A    between atoms: _256  and  _257
REMARK  104  A    between atoms: _262  and  _264
REMARK  105  A    between atoms: _264  and  _265
REMARK  106  A    between atoms: _264  and  _267
REMARK  107  A    between atoms: _267  and  _268
REMARK  108  A    between atoms: _273  and  _274
REMARK  109  A    between atoms: _276  and  _278
REMARK  110  A    between atoms: _278  and  _279
REMARK  111  A    between atoms: _278  and  _281
REMARK  112  A    between atoms: _281  and  _282
REMARK  113  A    between atoms: _287  and  _288
REMARK  114  A    between atoms: _290  and  _292
REMARK  115  A    between atoms: _292  and  _293
REMARK  116  A    between atoms: _292  and  _295
REMARK  117  A    between atoms: _295  and  _296
REMARK  118  A    between atoms: _299  and  _301
REMARK  119  A    between atoms: _301  and  _302
REMARK  120  A    between atoms: _301  and  _304
REMARK  121  A    between atoms: _304  and  _305
REMARK  122  A    between atoms: _307  and  _309
REMARK  123  A    between atoms: _309  and  _310
REMARK  124  A    between atoms: _309  and  _312
REMARK  125  A    between atoms: _312  and  _313
REMARK  126  A    between atoms: _313  and  _314
REMARK  127  A    between atoms: _314  and  _315
REMARK  128  A    between atoms: _324  and  _326
REMARK  129  A    between atoms: _326  and  _327
REMARK  130  A    between atoms: _329  and  _331
REMARK  131  A    between atoms: _331  and  _332
REMARK  132  A    between atoms: _331  and  _334
REMARK  133  A    between atoms: _337  and  _339
REMARK  134  A    between atoms: _339  and  _340
REMARK  135  A    between atoms: _339  and  _342
REMARK  136  A    between atoms: _342  and  _343
REMARK  137  A    between atoms: _346  and  _348
REMARK  138  A    between atoms: _348  and  _349
REMARK  139  A    between atoms: _351  and  _353
REMARK  140  A    between atoms: _353  and  _354
REMARK  141  A    between atoms: _353  and  _356
REMARK  142  A    between atoms: _356  and  _357
REMARK  143  A    between atoms: _360  and  _362
REMARK  144  A    between atoms: _362  and  _363
REMARK  145  A    between atoms: _362  and  _365
REMARK  146  A    between atoms: _365  and  _366
REMARK  147  A    between atoms: _366  and  _367
REMARK  148  A    between atoms: _372  and  _374
REMARK  149  A    between atoms: _374  and  _375
REMARK  150  A    between atoms: _377  and  _379
REMARK  151  A    between atoms: _379  and  _380
REMARK  152  A    between atoms: _379  and  _382
REMARK  153  A    between atoms: _382  and  _383
REMARK  154  A    between atoms: _389  and  _391
REMARK  155  A    between atoms: _391  and  _392
REMARK  156  A    between atoms: _394  and  _396
REMARK  157  A    between atoms: _396  and  _397
REMARK  158  A    between atoms: _396  and  _399
REMARK  159  A    between atoms: _399  and  _400
REMARK  160  A    between atoms: _403  and  _405
REMARK  161  A    between atoms: _405  and  _406
REMARK  162  A    between atoms: _405  and  _408
REMARK  163  A    between atoms: _408  and  _409
REMARK  164  A    between atoms: _411  and  _413
REMARK  165  A    between atoms: _413  and  _414
REMARK  166  A    between atoms: _413  and  _416
REMARK  167  A    between atoms: _416  and  _417
REMARK  168  A    between atoms: _417  and  _418
REMARK  169  A    between atoms: _423  and  _425
REMARK  170  A    between atoms: _425  and  _426
REMARK  171  A    between atoms: _429  and  _431
REMARK  172  A    between atoms: _431  and  _432
REMARK  173  A    between atoms: _431  and  _434
REMARK  174  A    between atoms: _434  and  _435
REMARK  175  A    between atoms: _438  and  _440
REMARK  176  A    between atoms: _440  and  _441
REMARK  177  A    between atoms: _440  and  _443
REMARK  178  A    between atoms: _443  and  _444
REMARK  179  A    between atoms: _446  and  _448
REMARK  180  A    between atoms: _448  and  _449
REMARK  181  A    between atoms: _451  and  _453
REMARK  182  A    between atoms: _453  and  _454
REMARK  183  A    between atoms: _453  and  _456
REMARK  184  A    between atoms: _456  and  _457
REMARK  185  A    between atoms: _459  and  _461
REMARK  186  A    between atoms: _461  and  _462
REMARK  187  A    between atoms: _465  and  _467
REMARK  188  A    between atoms: _467  and  _468
REMARK  189  A    between atoms: _467  and  _470
REMARK  190  A    between atoms: _470  and  _471
REMARK  191  A    between atoms: _474  and  _476
REMARK  192  A    between atoms: _476  and  _477
REMARK  193  A    between atoms: _476  and  _479
REMARK  194  A    between atoms: _482  and  _484
REMARK  195  A    between atoms: _484  and  _485
REMARK  196  A    between atoms: _488  and  _490
REMARK  197  A    between atoms: _490  and  _491
REMARK  198  A    between atoms: _490  and  _493
REMARK  199  A    between atoms: _497  and  _498
REMARK  200  A    between atoms: _503  and  _505
REMARK  201  A    between atoms: _505  and  _506
REMARK  202  A    between atoms: _505  and  _508
REMARK  203  A    between atoms: _508  and  _509
REMARK  204  A    between atoms: _509  and  _510
REMARK  205  A    between atoms: _515  and  _517
REMARK  206  A    between atoms: _517  and  _518
REMARK  207  A    between atoms: _517  and  _520
REMARK  208  A    between atoms: _520  and  _521
REMARK  209  A    between atoms: _524  and  _526
REMARK  210  A    between atoms: _526  and  _527
REMARK  211  A    between atoms: _526  and  _529
REMARK  212  A    between atoms: _529  and  _530
REMARK  213  A    between atoms: _533  and  _535
REMARK  214  A    between atoms: _535  and  _536
REMARK  215  A    between atoms: _535  and  _538
REMARK  216  A    between atoms: _538  and  _539
REMARK                            x       y       z     vdW  Elec       q    Type
REMARK                         _______ _______ _______ _____ _____    ______ ____
ROOT
ATOM      1  O   HOH     1      45.012  31.164   2.887  0.00  0.00    +0.000 OA
ENDROOT
TORSDOF 0
REMARK  Name = ../refined-set-2016/2cli/2cli_pocket.pdb
REMARK  216 active torsions:
REMARK  status: ('A' for Active; 'I' for Inactive)
REMARK    1  A    between atoms: _1  and  _3
REMARK    2  A    between atoms: _3  and  _4
REMARK    3  A    between atoms: _3  and  _6
REMARK    4  A    between atoms: _10  and  _11
REMARK    5  A    between atoms: _16  and  _18
REMARK    6  A    between atoms: _18  and  _19
REMARK    7  A    between atoms: _18  and  _21
REMARK    8  A    between atoms: _21  and  _22
REMARK    9  A    between atoms: _28  and  _30
REMARK   10  A    between atoms: _30  and  _31
REMARK   11  A    between atoms: _30  and  _33
REMARK   12  A    between atoms: _36  and  _38
REMARK   13  A    between atoms: _38  and  _39
REMARK   14  A    between atoms: _38  and  _41
REMARK   15  A    between atoms: _41  and  _42
REMARK   16  A    between atoms: _45  and  _47
REMARK   17  A    between atoms: _47  and  _48
REMARK   18  A    between atoms: _47  and  _50
REMARK   19  A    between atoms: _50  and  _51
REMARK   20  A    between atoms: _54  and  _56
REMARK   21  A    between atoms: _56  and  _57
REMARK   22  A    between atoms: _56  and  _59
REMARK   23  A    between atoms: _59  and  _60
REMARK   24  A    between atoms: _60  and  _61
REMARK   25  A    between atoms: _64  and  _66
REMARK   26  A    between atoms: _66  and  _67
REMARK   27  A    between atoms: _66  and  _69
REMARK   28  A    between atoms: _69  and  _70
REMARK   29  A    between atoms: _73  and  _75
REMARK   30  A    between atoms: _75  and  _76
REMARK   31  A    between atoms: _78  and  _80
REMARK   32  A    between atoms: _80  and  _81
REMARK   33  A    between atoms: _80  and  _83
REMARK   34  A    between atoms: _83  and  _84
REMARK   35  A    between atoms: _87  and  _89
REMARK   36  A    between atoms: _89  and  _90
REMARK   37  A    between atoms: _93  and  _95
REMARK   38  A    between atoms: _95  and  _96
REMARK   39  A    between atoms: _95  and  _98
REMARK   40  A    between atoms: _98  and  _99
REMARK   41  A    between atoms: _102  and  _104
REMARK   42  A    between atoms: _104  and  _105
REMARK   43  A    between atoms: _107  and  _109
REMARK   44  A    between atoms: _109  and  _110
REMARK   45  A    between atoms: _109  and  _112
REMARK   46  A    between atoms: _112  and  _113
REMARK   47  A    between atoms: _116  and  _118
REMARK   48  A    between atoms: _118  and  _119
REMARK   49  A    between atoms: _118  and  _121
REMARK   50  A    between atoms: _121  and  _122
REMARK   51  A    between atoms: _125  and  _127
REMARK   52  A    between atoms: _127  and  _128
REMARK   53  A    between atoms: _130  and  _132
REMARK   54  A    between atoms: _132  and  _133
REMARK   55  A    between atoms: _132  and  _135
REMARK   56  A    between atoms: _135  and  _136
REMARK   57  A    between atoms: _139  and  _141
REMARK   58  A    between atoms: _141  and  _142
REMARK   59  A    between atoms: _141  and  _144
REMARK   60  A    between atoms: _144  and  _145
REMARK   61  A    between atoms: _148  and  _150
REMARK   62  A    between atoms: _150  and  _151
REMARK   63  A    between atoms: _150  and  _153
REMARK   64  A    between atoms: _153  and  _154
REMARK   65  A    between atoms: _154  and  _155
REMARK   66  A    between atoms: _157  and  _159
REMARK   67  A    between atoms: _159  and  _160
REMARK   68  A    between atoms: _159  and  _162
REMARK   69  A    between atoms: _162  and  _163
REMARK   70  A    between atoms: _168  and  _169
REMARK   71  A    between atoms: _171  and  _173
REMARK   72  A    between atoms: _173  and  _174
REMARK   73  A    between atoms: _173  and  _176
REMARK   74  A    between atoms: _176  and  _177
REMARK   75  A    between atoms: _180  and  _182
REMARK   76  A    between atoms: _182  and  _183
REMARK   77  A    between atoms: _182  and  _185
REMARK   78  A    between atoms: _188  and  _190
REMARK   79  A    between atoms: _190  and  _191
REMARK   80  A    between atoms: _194  and  _196
REMARK   81  A    between atoms: _196  and  _197
REMARK   82  A    between atoms: _196  and  _199
REMARK   83  A    between atoms: _199  and  _200
REMARK   84  A    between atoms: _203  and  _205
REMARK   85  A    between atoms: _205  and  _206
REMARK   86  A    between atoms: _205  and  _208
REMARK   87  A    between atoms: _212  and  _213
REMARK   88  A    between atoms: _218  and  _220
REMARK   89  A    between atoms: _220  and  _221
REMARK   90  A    between atoms: _220  and  _223
REMARK   91  A    between atoms: _223  and  _224
REMARK   92  A    between atoms: _227  and  _229
REMARK   93  A    between atoms: _229  and  _230
REMARK   94  A    between atoms: _229  and  _232
REMARK   95  A    between atoms: _232  and  _233
REMARK   96  A    between atoms: _239  and  _241
REMARK   97  A    between atoms: _241  and  _242
REMARK   98  A    between atoms: _241  and  _244
REMARK   99  A    between atoms: _244  and  _245
REMARK  100  A    between atoms: _248  and  _250
REMARK  101  A    between atoms: _250  and  _251
REMARK  102  A    between atoms: _250  and  _253
REMARK  103  A    between atoms: _256  and  _257
REMARK  104  A    between atoms: _262  and  _264
REMARK  105  A    between atoms: _264  and  _265
REMARK  106  A    between atoms: _264  and  _267
REMARK  107  A    between atoms: _267  and  _268
REMARK  108  A    between atoms: _273  and  _274
REMARK  109  A    between atoms: _276  and  _278
REMARK  110  A    between atoms: _278  and  _279
REMARK  111  A    between atoms: _278  and  _281
REMARK  112  A    between atoms: _281  and  _282
REMARK  113  A    between atoms: _287  and  _288
REMARK  114  A    between atoms: _290  and  _292
REMARK  115  A    between atoms: _292  and  _293
REMARK  116  A    between atoms: _292  and  _295
REMARK  117  A    between atoms: _295  and  _296
REMARK  118  A    between atoms: _299  and  _301
REMARK  119  A    between atoms: _301  and  _302
REMARK  120  A    between atoms: _301  and  _304
REMARK  121  A    between atoms: _304  and  _305
REMARK  122  A    between atoms: _307  and  _309
REMARK  123  A    between atoms: _309  and  _310
REMARK  124  A    between atoms: _309  and  _312
REMARK  125  A    between atoms: _312  and  _313
REMARK  126  A    between atoms: _313  and  _314
REMARK  127  A    between atoms: _314  and  _315
REMARK  128  A    between atoms: _324  and  _326
REMARK  129  A    between atoms: _326  and  _327
REMARK  130  A    between atoms: _329  and  _331
REMARK  131  A    between atoms: _331  and  _332
REMARK  132  A    between atoms: _331  and  _334
REMARK  133  A    between atoms: _337  and  _339
REMARK  134  A    between atoms: _339  and  _340
REMARK  135  A    between atoms: _339  and  _342
REMARK  136  A    between atoms: _342  and  _343
REMARK  137  A    between atoms: _346  and  _348
REMARK  138  A    between atoms: _348  and  _349
REMARK  139  A    between atoms: _351  and  _353
REMARK  140  A    between atoms: _353  and  _354
REMARK  141  A    between atoms: _353  and  _356
REMARK  142  A    between atoms: _356  and  _357
REMARK  143  A    between atoms: _360  and  _362
REMARK  144  A    between atoms: _362  and  _363
REMARK  145  A    between atoms: _362  and  _365
REMARK  146  A    between atoms: _365  and  _366
REMARK  147  A    between atoms: _366  and  _367
REMARK  148  A    between atoms: _372  and  _374
REMARK  149  A    between atoms: _374  and  _375
REMARK  150  A    between atoms: _377  and  _379
REMARK  151  A    between atoms: _379  and  _380
REMARK  152  A    between atoms: _379  and  _382
REMARK  153  A    between atoms: _382  and  _383
REMARK  154  A    between atoms: _389  and  _391
REMARK  155  A    between atoms: _391  and  _392
REMARK  156  A    between atoms: _394  and  _396
REMARK  157  A    between atoms: _396  and  _397
REMARK  158  A    between atoms: _396  and  _399
REMARK  159  A    between atoms: _399  and  _400
REMARK  160  A    between atoms: _403  and  _405
REMARK  161  A    between atoms: _405  and  _406
REMARK  162  A    between atoms: _405  and  _408
REMARK  163  A    between atoms: _408  and  _409
REMARK  164  A    between atoms: _411  and  _413
REMARK  165  A    between atoms: _413  and  _414
REMARK  166  A    between atoms: _413  and  _416
REMARK  167  A    between atoms: _416  and  _417
REMARK  168  A    between atoms: _417  and  _418
REMARK  169  A    between atoms: _423  and  _425
REMARK  170  A    between atoms: _425  and  _426
REMARK  171  A    between atoms: _429  and  _431
REMARK  172  A    between atoms: _431  and  _432
REMARK  173  A    between atoms: _431  and  _434
REMARK  174  A    between atoms: _434  and  _435
REMARK  175  A    between atoms: _438  and  _440
REMARK  176  A    between atoms: _440  and  _441
REMARK  177  A    between atoms: _440  and  _443
REMARK  178  A    between atoms: _443  and  _444
REMARK  179  A    between atoms: _446  and  _448
REMARK  180  A    between atoms: _448  and  _449
REMARK  181  A    between atoms: _451  and  _453
REMARK  182  A    between atoms: _453  and  _454
REMARK  183  A    between atoms: _453  and  _456
REMARK  184  A    between atoms: _456  and  _457
REMARK  185  A    between atoms: _459  and  _461
REMARK  186  A    between atoms: _461  and  _462
REMARK  187  A    between atoms: _465  and  _467
REMARK  188  A    between atoms: _467  and  _468
REMARK  189  A    between atoms: _467  and  _470
REMARK  190  A    between atoms: _470  and  _471
REMARK  191  A    between atoms: _474  and  _476
REMARK  192  A    between atoms: _476  and  _477
REMARK  193  A    between atoms: _476  and  _479
REMARK  194  A    between atoms: _482  and  _484
REMARK  195  A    between atoms: _484  and  _485
REMARK  196  A    between atoms: _488  and  _490
REMARK  197  A    between atoms: _490  and  _491
REMARK  198  A    between atoms: _490  and  _493
REMARK  199  A    between atoms: _497  and  _498
REMARK  200  A    between atoms: _503  and  _505
REMARK  201  A    between atoms: _505  and  _506
REMARK  202  A    between atoms: _505  and  _508
REMARK  203  A    between atoms: _508  and  _509
REMARK  204  A    between atoms: _509  and  _510
REMARK  205  A    between atoms: _515  and  _517
REMARK  206  A    between atoms: _517  and  _518
REMARK  207  A    between atoms: _517  and  _520
REMARK  208  A    between atoms: _520  and  _521
REMARK  209  A    between atoms: _524  and  _526
REMARK  210  A    between atoms: _526  and  _527
REMARK  211  A    between atoms: _526  and  _529
REMARK  212  A    between atoms: _529  and  _530
REMARK  213  A    between atoms: _533  and  _535
REMARK  214  A    between atoms: _535  and  _536
REMARK  215  A    between atoms: _535  and  _538
REMARK  216  A    between atoms: _538  and  _539
REMARK                            x       y       z     vdW  Elec       q    Type
REMARK                         _______ _______ _______ _____ _____    ______ ____
ROOT
ATOM      1  O   HOH     1      46.143  32.381   8.500  0.00  0.00    +0.000 OA
ENDROOT
TORSDOF 0
REMARK  Name = ../refined-set-2016/2cli/2cli_pocket.pdb
REMARK  216 active torsions:
REMARK  status: ('A' for Active; 'I' for Inactive)
REMARK    1  A    between atoms: _1  and  _3
REMARK    2  A    between atoms: _3  and  _4
REMARK    3  A    between atoms: _3  and  _6
REMARK    4  A    between atoms: _10  and  _11
REMARK    5  A    between atoms: _16  and  _18
REMARK    6  A    between atoms: _18  and  _19
REMARK    7  A    between atoms: _18  and  _21
REMARK    8  A    between atoms: _21  and  _22
REMARK    9  A    between atoms: _28  and  _30
REMARK   10  A    between atoms: _30  and  _31
REMARK   11  A    between atoms: _30  and  _33
REMARK   12  A    between atoms: _36  and  _38
REMARK   13  A    between atoms: _38  and  _39
REMARK   14  A    between atoms: _38  and  _41
REMARK   15  A    between atoms: _41  and  _42
REMARK   16  A    between atoms: _45  and  _47
REMARK   17  A    between atoms: _47  and  _48
REMARK   18  A    between atoms: _47  and  _50
REMARK   19  A    between atoms: _50  and  _51
REMARK   20  A    between atoms: _54  and  _56
REMARK   21  A    between atoms: _56  and  _57
REMARK   22  A    between atoms: _56  and  _59
REMARK   23  A    between atoms: _59  and  _60
REMARK   24  A    between atoms: _60  and  _61
REMARK   25  A    between atoms: _64  and  _66
REMARK   26  A    between atoms: _66  and  _67
REMARK   27  A    between atoms: _66  and  _69
REMARK   28  A    between atoms: _69  and  _70
REMARK   29  A    between atoms: _73  and  _75
REMARK   30  A    between atoms: _75  and  _76
REMARK   31  A    between atoms: _78  and  _80
REMARK   32  A    between atoms: _80  and  _81
REMARK   33  A    between atoms: _80  and  _83
REMARK   34  A    between atoms: _83  and  _84
REMARK   35  A    between atoms: _87  and  _89
REMARK   36  A    between atoms: _89  and  _90
REMARK   37  A    between atoms: _93  and  _95
REMARK   38  A    between atoms: _95  and  _96
REMARK   39  A    between atoms: _95  and  _98
REMARK   40  A    between atoms: _98  and  _99
REMARK   41  A    between atoms: _102  and  _104
REMARK   42  A    between atoms: _104  and  _105
REMARK   43  A    between atoms: _107  and  _109
REMARK   44  A    between atoms: _109  and  _110
REMARK   45  A    between atoms: _109  and  _112
REMARK   46  A    between atoms: _112  and  _113
REMARK   47  A    between atoms: _116  and  _118
REMARK   48  A    between atoms: _118  and  _119
REMARK   49  A    between atoms: _118  and  _121
REMARK   50  A    between atoms: _121  and  _122
REMARK   51  A    between atoms: _125  and  _127
REMARK   52  A    between atoms: _127  and  _128
REMARK   53  A    between atoms: _130  and  _132
REMARK   54  A    between atoms: _132  and  _133
REMARK   55  A    between atoms: _132  and  _135
REMARK   56  A    between atoms: _135  and  _136
REMARK   57  A    between atoms: _139  and  _141
REMARK   58  A    between atoms: _141  and  _142
REMARK   59  A    between atoms: _141  and  _144
REMARK   60  A    between atoms: _144  and  _145
REMARK   61  A    between atoms: _148  and  _150
REMARK   62  A    between atoms: _150  and  _151
REMARK   63  A    between atoms: _150  and  _153
REMARK   64  A    between atoms: _153  and  _154
REMARK   65  A    between atoms: _154  and  _155
REMARK   66  A    between atoms: _157  and  _159
REMARK   67  A    between atoms: _159  and  _160
REMARK   68  A    between atoms: _159  and  _162
REMARK   69  A    between atoms: _162  and  _163
REMARK   70  A    between atoms: _168  and  _169
REMARK   71  A    between atoms: _171  and  _173
REMARK   72  A    between atoms: _173  and  _174
REMARK   73  A    between atoms: _173  and  _176
REMARK   74  A    between atoms: _176  and  _177
REMARK   75  A    between atoms: _180  and  _182
REMARK   76  A    between atoms: _182  and  _183
REMARK   77  A    between atoms: _182  and  _185
REMARK   78  A    between atoms: _188  and  _190
REMARK   79  A    between atoms: _190  and  _191
REMARK   80  A    between atoms: _194  and  _196
REMARK   81  A    between atoms: _196  and  _197
REMARK   82  A    between atoms: _196  and  _199
REMARK   83  A    between atoms: _199  and  _200
REMARK   84  A    between atoms: _203  and  _205
REMARK   85  A    between atoms: _205  and  _206
REMARK   86  A    between atoms: _205  and  _208
REMARK   87  A    between atoms: _212  and  _213
REMARK   88  A    between atoms: _218  and  _220
REMARK   89  A    between atoms: _220  and  _221
REMARK   90  A    between atoms: _220  and  _223
REMARK   91  A    between atoms: _223  and  _224
REMARK   92  A    between atoms: _227  and  _229
REMARK   93  A    between atoms: _229  and  _230
REMARK   94  A    between atoms: _229  and  _232
REMARK   95  A    between atoms: _232  and  _233
REMARK   96  A    between atoms: _239  and  _241
REMARK   97  A    between atoms: _241  and  _242
REMARK   98  A    between atoms: _241  and  _244
REMARK   99  A    between atoms: _244  and  _245
REMARK  100  A    between atoms: _248  and  _250
REMARK  101  A    between atoms: _250  and  _251
REMARK  102  A    between atoms: _250  and  _253
REMARK  103  A    between atoms: _256  and  _257
REMARK  104  A    between atoms: _262  and  _264
REMARK  105  A    between atoms: _264  and  _265
REMARK  106  A    between atoms: _264  and  _267
REMARK  107  A    between atoms: _267  and  _268
REMARK  108  A    between atoms: _273  and  _274
REMARK  109  A    between atoms: _276  and  _278
REMARK  110  A    between atoms: _278  and  _279
REMARK  111  A    between atoms: _278  and  _281
REMARK  112  A    between atoms: _281  and  _282
REMARK  113  A    between atoms: _287  and  _288
REMARK  114  A    between atoms: _290  and  _292
REMARK  115  A    between atoms: _292  and  _293
REMARK  116  A    between atoms: _292  and  _295
REMARK  117  A    between atoms: _295  and  _296
REMARK  118  A    between atoms: _299  and  _301
REMARK  119  A    between atoms: _301  and  _302
REMARK  120  A    between atoms: _301  and  _304
REMARK  121  A    between atoms: _304  and  _305
REMARK  122  A    between atoms: _307  and  _309
REMARK  123  A    between atoms: _309  and  _310
REMARK  124  A    between atoms: _309  and  _312
REMARK  125  A    between atoms: _312  and  _313
REMARK  126  A    between atoms: _313  and  _314
REMARK  127  A    between atoms: _314  and  _315
REMARK  128  A    between atoms: _324  and  _326
REMARK  129  A    between atoms: _326  and  _327
REMARK  130  A    between atoms: _329  and  _331
REMARK  131  A    between atoms: _331  and  _332
REMARK  132  A    between atoms: _331  and  _334
REMARK  133  A    between atoms: _337  and  _339
REMARK  134  A    between atoms: _339  and  _340
REMARK  135  A    between atoms: _339  and  _342
REMARK  136  A    between atoms: _342  and  _343
REMARK  137  A    between atoms: _346  and  _348
REMARK  138  A    between atoms: _348  and  _349
REMARK  139  A    between atoms: _351  and  _353
REMARK  140  A    between atoms: _353  and  _354
REMARK  141  A    between atoms: _353  and  _356
REMARK  142  A    between atoms: _356  and  _357
REMARK  143  A    between atoms: _360  and  _362
REMARK  144  A    between atoms: _362  and  _363
REMARK  145  A    between atoms: _362  and  _365
REMARK  146  A    between atoms: _365  and  _366
REMARK  147  A    between atoms: _366  and  _367
REMARK  148  A    between atoms: _372  and  _374
REMARK  149  A    between atoms: _374  and  _375
REMARK  150  A    between atoms: _377  and  _379
REMARK  151  A    between atoms: _379  and  _380
REMARK  152  A    between atoms: _379  and  _382
REMARK  153  A    between atoms: _382  and  _383
REMARK  154  A    between atoms: _389  and  _391
REMARK  155  A    between atoms: _391  and  _392
REMARK  156  A    between atoms: _394  and  _396
REMARK  157  A    between atoms: _396  and  _397
REMARK  158  A    between atoms: _396  and  _399
REMARK  159  A    between atoms: _399  and  _400
REMARK  160  A    between atoms: _403  and  _405
REMARK  161  A    between atoms: _405  and  _406
REMARK  162  A    between atoms: _405  and  _408
REMARK  163  A    between atoms: _408  and  _409
REMARK  164  A    between atoms: _411  and  _413
REMARK  165  A    between atoms: _413  and  _414
REMARK  166  A    between atoms: _413  and  _416
REMARK  167  A    between atoms: _416  and  _417
REMARK  168  A    between atoms: _417  and  _418
REMARK  169  A    between atoms: _423  and  _425
REMARK  170  A    between atoms: _425  and  _426
REMARK  171  A    between atoms: _429  and  _431
REMARK  172  A    between atoms: _431  and  _432
REMARK  173  A    between atoms: _431  and  _434
REMARK  174  A    between atoms: _434  and  _435
REMARK  175  A    between atoms: _438  and  _440
REMARK  176  A    between atoms: _440  and  _441
REMARK  177  A    between atoms: _440  and  _443
REMARK  178  A    between atoms: _443  and  _444
REMARK  179  A    between atoms: _446  and  _448
REMARK  180  A    between atoms: _448  and  _449
REMARK  181  A    between atoms: _451  and  _453
REMARK  182  A    between atoms: _453  and  _454
REMARK  183  A    between atoms: _453  and  _456
REMARK  184  A    between atoms: _456  and  _457
REMARK  185  A    between atoms: _459  and  _461
REMARK  186  A    between atoms: _461  and  _462
REMARK  187  A    between atoms: _465  and  _467
REMARK  188  A    between atoms: _467  and  _468
REMARK  189  A    between atoms: _467  and  _470
REMARK  190  A    between atoms: _470  and  _471
REMARK  191  A    between atoms: _474  and  _476
REMARK  192  A    between atoms: _476  and  _477
REMARK  193  A    between atoms: _476  and  _479
REMARK  194  A    between atoms: _482  and  _484
REMARK  195  A    between atoms: _484  and  _485
REMARK  196  A    between atoms: _488  and  _490
REMARK  197  A    between atoms: _490  and  _491
REMARK  198  A    between atoms: _490  and  _493
REMARK  199  A    between atoms: _497  and  _498
REMARK  200  A    between atoms: _503  and  _505
REMARK  201  A    between atoms: _505  and  _506
REMARK  202  A    between atoms: _505  and  _508
REMARK  203  A    between atoms: _508  and  _509
REMARK  204  A    between atoms: _509  and  _510
REMARK  205  A    between atoms: _515  and  _517
REMARK  206  A    between atoms: _517  and  _518
REMARK  207  A    between atoms: _517  and  _520
REMARK  208  A    between atoms: _520  and  _521
REMARK  209  A    between atoms: _524  and  _526
REMARK  210  A    between atoms: _526  and  _527
REMARK  211  A    between atoms: _526  and  _529
REMARK  212  A    between atoms: _529  and  _530
REMARK  213  A    between atoms: _533  and  _535
REMARK  214  A    between atoms: _535  and  _536
REMARK  215  A    between atoms: _535  and  _538
REMARK  216  A    between atoms: _538  and  _539
REMARK                            x       y       z     vdW  Elec       q    Type
REMARK                         _______ _______ _______ _____ _____    ______ ____
ROOT
ATOM      1  O   HOH     1      51.703  19.871  11.081  0.00  0.00    +0.000 OA
ENDROOT
TORSDOF 0
REMARK  Name = ../refined-set-2016/2cli/2cli_pocket.pdb
REMARK  216 active torsions:
REMARK  status: ('A' for Active; 'I' for Inactive)
REMARK    1  A    between atoms: _1  and  _3
REMARK    2  A    between atoms: _3  and  _4
REMARK    3  A    between atoms: _3  and  _6
REMARK    4  A    between atoms: _10  and  _11
REMARK    5  A    between atoms: _16  and  _18
REMARK    6  A    between atoms: _18  and  _19
REMARK    7  A    between atoms: _18  and  _21
REMARK    8  A    between atoms: _21  and  _22
REMARK    9  A    between atoms: _28  and  _30
REMARK   10  A    between atoms: _30  and  _31
REMARK   11  A    between atoms: _30  and  _33
REMARK   12  A    between atoms: _36  and  _38
REMARK   13  A    between atoms: _38  and  _39
REMARK   14  A    between atoms: _38  and  _41
REMARK   15  A    between atoms: _41  and  _42
REMARK   16  A    between atoms: _45  and  _47
REMARK   17  A    between atoms: _47  and  _48
REMARK   18  A    between atoms: _47  and  _50
REMARK   19  A    between atoms: _50  and  _51
REMARK   20  A    between atoms: _54  and  _56
REMARK   21  A    between atoms: _56  and  _57
REMARK   22  A    between atoms: _56  and  _59
REMARK   23  A    between atoms: _59  and  _60
REMARK   24  A    between atoms: _60  and  _61
REMARK   25  A    between atoms: _64  and  _66
REMARK   26  A    between atoms: _66  and  _67
REMARK   27  A    between atoms: _66  and  _69
REMARK   28  A    between atoms: _69  and  _70
REMARK   29  A    between atoms: _73  and  _75
REMARK   30  A    between atoms: _75  and  _76
REMARK   31  A    between atoms: _78  and  _80
REMARK   32  A    between atoms: _80  and  _81
REMARK   33  A    between atoms: _80  and  _83
REMARK   34  A    between atoms: _83  and  _84
REMARK   35  A    between atoms: _87  and  _89
REMARK   36  A    between atoms: _89  and  _90
REMARK   37  A    between atoms: _93  and  _95
REMARK   38  A    between atoms: _95  and  _96
REMARK   39  A    between atoms: _95  and  _98
REMARK   40  A    between atoms: _98  and  _99
REMARK   41  A    between atoms: _102  and  _104
REMARK   42  A    between atoms: _104  and  _105
REMARK   43  A    between atoms: _107  and  _109
REMARK   44  A    between atoms: _109  and  _110
REMARK   45  A    between atoms: _109  and  _112
REMARK   46  A    between atoms: _112  and  _113
REMARK   47  A    between atoms: _116  and  _118
REMARK   48  A    between atoms: _118  and  _119
REMARK   49  A    between atoms: _118  and  _121
REMARK   50  A    between atoms: _121  and  _122
REMARK   51  A    between atoms: _125  and  _127
REMARK   52  A    between atoms: _127  and  _128
REMARK   53  A    between atoms: _130  and  _132
REMARK   54  A    between atoms: _132  and  _133
REMARK   55  A    between atoms: _132  and  _135
REMARK   56  A    between atoms: _135  and  _136
REMARK   57  A    between atoms: _139  and  _141
REMARK   58  A    between atoms: _141  and  _142
REMARK   59  A    between atoms: _141  and  _144
REMARK   60  A    between atoms: _144  and  _145
REMARK   61  A    between atoms: _148  and  _150
REMARK   62  A    between atoms: _150  and  _151
REMARK   63  A    between atoms: _150  and  _153
REMARK   64  A    between atoms: _153  and  _154
REMARK   65  A    between atoms: _154  and  _155
REMARK   66  A    between atoms: _157  and  _159
REMARK   67  A    between atoms: _159  and  _160
REMARK   68  A    between atoms: _159  and  _162
REMARK   69  A    between atoms: _162  and  _163
REMARK   70  A    between atoms: _168  and  _169
REMARK   71  A    between atoms: _171  and  _173
REMARK   72  A    between atoms: _173  and  _174
REMARK   73  A    between atoms: _173  and  _176
REMARK   74  A    between atoms: _176  and  _177
REMARK   75  A    between atoms: _180  and  _182
REMARK   76  A    between atoms: _182  and  _183
REMARK   77  A    between atoms: _182  and  _185
REMARK   78  A    between atoms: _188  and  _190
REMARK   79  A    between atoms: _190  and  _191
REMARK   80  A    between atoms: _194  and  _196
REMARK   81  A    between atoms: _196  and  _197
REMARK   82  A    between atoms: _196  and  _199
REMARK   83  A    between atoms: _199  and  _200
REMARK   84  A    between atoms: _203  and  _205
REMARK   85  A    between atoms: _205  and  _206
REMARK   86  A    between atoms: _205  and  _208
REMARK   87  A    between atoms: _212  and  _213
REMARK   88  A    between atoms: _218  and  _220
REMARK   89  A    between atoms: _220  and  _221
REMARK   90  A    between atoms: _220  and  _223
REMARK   91  A    between atoms: _223  and  _224
REMARK   92  A    between atoms: _227  and  _229
REMARK   93  A    between atoms: _229  and  _230
REMARK   94  A    between atoms: _229  and  _232
REMARK   95  A    between atoms: _232  and  _233
REMARK   96  A    between atoms: _239  and  _241
REMARK   97  A    between atoms: _241  and  _242
REMARK   98  A    between atoms: _241  and  _244
REMARK   99  A    between atoms: _244  and  _245
REMARK  100  A    between atoms: _248  and  _250
REMARK  101  A    between atoms: _250  and  _251
REMARK  102  A    between atoms: _250  and  _253
REMARK  103  A    between atoms: _256  and  _257
REMARK  104  A    between atoms: _262  and  _264
REMARK  105  A    between atoms: _264  and  _265
REMARK  106  A    between atoms: _264  and  _267
REMARK  107  A    between atoms: _267  and  _268
REMARK  108  A    between atoms: _273  and  _274
REMARK  109  A    between atoms: _276  and  _278
REMARK  110  A    between atoms: _278  and  _279
REMARK  111  A    between atoms: _278  and  _281
REMARK  112  A    between atoms: _281  and  _282
REMARK  113  A    between atoms: _287  and  _288
REMARK  114  A    between atoms: _290  and  _292
REMARK  115  A    between atoms: _292  and  _293
REMARK  116  A    between atoms: _292  and  _295
REMARK  117  A    between atoms: _295  and  _296
REMARK  118  A    between atoms: _299  and  _301
REMARK  119  A    between atoms: _301  and  _302
REMARK  120  A    between atoms: _301  and  _304
REMARK  121  A    between atoms: _304  and  _305
REMARK  122  A    between atoms: _307  and  _309
REMARK  123  A    between atoms: _309  and  _310
REMARK  124  A    between atoms: _309  and  _312
REMARK  125  A    between atoms: _312  and  _313
REMARK  126  A    between atoms: _313  and  _314
REMARK  127  A    between atoms: _314  and  _315
REMARK  128  A    between atoms: _324  and  _326
REMARK  129  A    between atoms: _326  and  _327
REMARK  130  A    between atoms: _329  and  _331
REMARK  131  A    between atoms: _331  and  _332
REMARK  132  A    between atoms: _331  and  _334
REMARK  133  A    between atoms: _337  and  _339
REMARK  134  A    between atoms: _339  and  _340
REMARK  135  A    between atoms: _339  and  _342
REMARK  136  A    between atoms: _342  and  _343
REMARK  137  A    between atoms: _346  and  _348
REMARK  138  A    between atoms: _348  and  _349
REMARK  139  A    between atoms: _351  and  _353
REMARK  140  A    between atoms: _353  and  _354
REMARK  141  A    between atoms: _353  and  _356
REMARK  142  A    between atoms: _356  and  _357
REMARK  143  A    between atoms: _360  and  _362
REMARK  144  A    between atoms: _362  and  _363
REMARK  145  A    between atoms: _362  and  _365
REMARK  146  A    between atoms: _365  and  _366
REMARK  147  A    between atoms: _366  and  _367
REMARK  148  A    between atoms: _372  and  _374
REMARK  149  A    between atoms: _374  and  _375
REMARK  150  A    between atoms: _377  and  _379
REMARK  151  A    between atoms: _379  and  _380
REMARK  152  A    between atoms: _379  and  _382
REMARK  153  A    between atoms: _382  and  _383
REMARK  154  A    between atoms: _389  and  _391
REMARK  155  A    between atoms: _391  and  _392
REMARK  156  A    between atoms: _394  and  _396
REMARK  157  A    between atoms: _396  and  _397
REMARK  158  A    between atoms: _396  and  _399
REMARK  159  A    between atoms: _399  and  _400
REMARK  160  A    between atoms: _403  and  _405
REMARK  161  A    between atoms: _405  and  _406
REMARK  162  A    between atoms: _405  and  _408
REMARK  163  A    between atoms: _408  and  _409
REMARK  164  A    between atoms: _411  and  _413
REMARK  165  A    between atoms: _413  and  _414
REMARK  166  A    between atoms: _413  and  _416
REMARK  167  A    between atoms: _416  and  _417
REMARK  168  A    between atoms: _417  and  _418
REMARK  169  A    between atoms: _423  and  _425
REMARK  170  A    between atoms: _425  and  _426
REMARK  171  A    between atoms: _429  and  _431
REMARK  172  A    between atoms: _431  and  _432
REMARK  173  A    between atoms: _431  and  _434
REMARK  174  A    between atoms: _434  and  _435
REMARK  175  A    between atoms: _438  and  _440
REMARK  176  A    between atoms: _440  and  _441
REMARK  177  A    between atoms: _440  and  _443
REMARK  178  A    between atoms: _443  and  _444
REMARK  179  A    between atoms: _446  and  _448
REMARK  180  A    between atoms: _448  and  _449
REMARK  181  A    between atoms: _451  and  _453
REMARK  182  A    between atoms: _453  and  _454
REMARK  183  A    between atoms: _453  and  _456
REMARK  184  A    between atoms: _456  and  _457
REMARK  185  A    between atoms: _459  and  _461
REMARK  186  A    between atoms: _461  and  _462
REMARK  187  A    between atoms: _465  and  _467
REMARK  188  A    between atoms: _467  and  _468
REMARK  189  A    between atoms: _467  and  _470
REMARK  190  A    between atoms: _470  and  _471
REMARK  191  A    between atoms: _474  and  _476
REMARK  192  A    between atoms: _476  and  _477
REMARK  193  A    between atoms: _476  and  _479
REMARK  194  A    between atoms: _482  and  _484
REMARK  195  A    between atoms: _484  and  _485
REMARK  196  A    between atoms: _488  and  _490
REMARK  197  A    between atoms: _490  and  _491
REMARK  198  A    between atoms: _490  and  _493
REMARK  199  A    between atoms: _497  and  _498
REMARK  200  A    between atoms: _503  and  _505
REMARK  201  A    between atoms: _505  and  _506
REMARK  202  A    between atoms: _505  and  _508
REMARK  203  A    between atoms: _508  and  _509
REMARK  204  A    between atoms: _509  and  _510
REMARK  205  A    between atoms: _515  and  _517
REMARK  206  A    between atoms: _517  and  _518
REMARK  207  A    between atoms: _517  and  _520
REMARK  208  A    between atoms: _520  and  _521
REMARK  209  A    between atoms: _524  and  _526
REMARK  210  A    between atoms: _526  and  _527
REMARK  211  A    between atoms: _526  and  _529
REMARK  212  A    between atoms: _529  and  _530
REMARK  213  A    between atoms: _533  and  _535
REMARK  214  A    between atoms: _535  and  _536
REMARK  215  A    between atoms: _535  and  _538
REMARK  216  A    between atoms: _538  and  _539
REMARK                            x       y       z     vdW  Elec       q    Type
REMARK                         _______ _______ _______ _____ _____    ______ ____
ROOT
ATOM      1  O   HOH     1      48.419  14.418  17.234  0.00  0.00    +0.000 OA
ENDROOT
TORSDOF 0
REMARK  Name = ../refined-set-2016/2cli/2cli_pocket.pdb
REMARK  216 active torsions:
REMARK  status: ('A' for Active; 'I' for Inactive)
REMARK    1  A    between atoms: _1  and  _3
REMARK    2  A    between atoms: _3  and  _4
REMARK    3  A    between atoms: _3  and  _6
REMARK    4  A    between atoms: _10  and  _11
REMARK    5  A    between atoms: _16  and  _18
REMARK    6  A    between atoms: _18  and  _19
REMARK    7  A    between atoms: _18  and  _21
REMARK    8  A    between atoms: _21  and  _22
REMARK    9  A    between atoms: _28  and  _30
REMARK   10  A    between atoms: _30  and  _31
REMARK   11  A    between atoms: _30  and  _33
REMARK   12  A    between atoms: _36  and  _38
REMARK   13  A    between atoms: _38  and  _39
REMARK   14  A    between atoms: _38  and  _41
REMARK   15  A    between atoms: _41  and  _42
REMARK   16  A    between atoms: _45  and  _47
REMARK   17  A    between atoms: _47  and  _48
REMARK   18  A    between atoms: _47  and  _50
REMARK   19  A    between atoms: _50  and  _51
REMARK   20  A    between atoms: _54  and  _56
REMARK   21  A    between atoms: _56  and  _57
REMARK   22  A    between atoms: _56  and  _59
REMARK   23  A    between atoms: _59  and  _60
REMARK   24  A    between atoms: _60  and  _61
REMARK   25  A    between atoms: _64  and  _66
REMARK   26  A    between atoms: _66  and  _67
REMARK   27  A    between atoms: _66  and  _69
REMARK   28  A    between atoms: _69  and  _70
REMARK   29  A    between atoms: _73  and  _75
REMARK   30  A    between atoms: _75  and  _76
REMARK   31  A    between atoms: _78  and  _80
REMARK   32  A    between atoms: _80  and  _81
REMARK   33  A    between atoms: _80  and  _83
REMARK   34  A    between atoms: _83  and  _84
REMARK   35  A    between atoms: _87  and  _89
REMARK   36  A    between atoms: _89  and  _90
REMARK   37  A    between atoms: _93  and  _95
REMARK   38  A    between atoms: _95  and  _96
REMARK   39  A    between atoms: _95  and  _98
REMARK   40  A    between atoms: _98  and  _99
REMARK   41  A    between atoms: _102  and  _104
REMARK   42  A    between atoms: _104  and  _105
REMARK   43  A    between atoms: _107  and  _109
REMARK   44  A    between atoms: _109  and  _110
REMARK   45  A    between atoms: _109  and  _112
REMARK   46  A    between atoms: _112  and  _113
REMARK   47  A    between atoms: _116  and  _118
REMARK   48  A    between atoms: _118  and  _119
REMARK   49  A    between atoms: _118  and  _121
REMARK   50  A    between atoms: _121  and  _122
REMARK   51  A    between atoms: _125  and  _127
REMARK   52  A    between atoms: _127  and  _128
REMARK   53  A    between atoms: _130  and  _132
REMARK   54  A    between atoms: _132  and  _133
REMARK   55  A    between atoms: _132  and  _135
REMARK   56  A    between atoms: _135  and  _136
REMARK   57  A    between atoms: _139  and  _141
REMARK   58  A    between atoms: _141  and  _142
REMARK   59  A    between atoms: _141  and  _144
REMARK   60  A    between atoms: _144  and  _145
REMARK   61  A    between atoms: _148  and  _150
REMARK   62  A    between atoms: _150  and  _151
REMARK   63  A    between atoms: _150  and  _153
REMARK   64  A    between atoms: _153  and  _154
REMARK   65  A    between atoms: _154  and  _155
REMARK   66  A    between atoms: _157  and  _159
REMARK   67  A    between atoms: _159  and  _160
REMARK   68  A    between atoms: _159  and  _162
REMARK   69  A    between atoms: _162  and  _163
REMARK   70  A    between atoms: _168  and  _169
REMARK   71  A    between atoms: _171  and  _173
REMARK   72  A    between atoms: _173  and  _174
REMARK   73  A    between atoms: _173  and  _176
REMARK   74  A    between atoms: _176  and  _177
REMARK   75  A    between atoms: _180  and  _182
REMARK   76  A    between atoms: _182  and  _183
REMARK   77  A    between atoms: _182  and  _185
REMARK   78  A    between atoms: _188  and  _190
REMARK   79  A    between atoms: _190  and  _191
REMARK   80  A    between atoms: _194  and  _196
REMARK   81  A    between atoms: _196  and  _197
REMARK   82  A    between atoms: _196  and  _199
REMARK   83  A    between atoms: _199  and  _200
REMARK   84  A    between atoms: _203  and  _205
REMARK   85  A    between atoms: _205  and  _206
REMARK   86  A    between atoms: _205  and  _208
REMARK   87  A    between atoms: _212  and  _213
REMARK   88  A    between atoms: _218  and  _220
REMARK   89  A    between atoms: _220  and  _221
REMARK   90  A    between atoms: _220  and  _223
REMARK   91  A    between atoms: _223  and  _224
REMARK   92  A    between atoms: _227  and  _229
REMARK   93  A    between atoms: _229  and  _230
REMARK   94  A    between atoms: _229  and  _232
REMARK   95  A    between atoms: _232  and  _233
REMARK   96  A    between atoms: _239  and  _241
REMARK   97  A    between atoms: _241  and  _242
REMARK   98  A    between atoms: _241  and  _244
REMARK   99  A    between atoms: _244  and  _245
REMARK  100  A    between atoms: _248  and  _250
REMARK  101  A    between atoms: _250  and  _251
REMARK  102  A    between atoms: _250  and  _253
REMARK  103  A    between atoms: _256  and  _257
REMARK  104  A    between atoms: _262  and  _264
REMARK  105  A    between atoms: _264  and  _265
REMARK  106  A    between atoms: _264  and  _267
REMARK  107  A    between atoms: _267  and  _268
REMARK  108  A    between atoms: _273  and  _274
REMARK  109  A    between atoms: _276  and  _278
REMARK  110  A    between atoms: _278  and  _279
REMARK  111  A    between atoms: _278  and  _281
REMARK  112  A    between atoms: _281  and  _282
REMARK  113  A    between atoms: _287  and  _288
REMARK  114  A    between atoms: _290  and  _292
REMARK  115  A    between atoms: _292  and  _293
REMARK  116  A    between atoms: _292  and  _295
REMARK  117  A    between atoms: _295  and  _296
REMARK  118  A    between atoms: _299  and  _301
REMARK  119  A    between atoms: _301  and  _302
REMARK  120  A    between atoms: _301  and  _304
REMARK  121  A    between atoms: _304  and  _305
REMARK  122  A    between atoms: _307  and  _309
REMARK  123  A    between atoms: _309  and  _310
REMARK  124  A    between atoms: _309  and  _312
REMARK  125  A    between atoms: _312  and  _313
REMARK  126  A    between atoms: _313  and  _314
REMARK  127  A    between atoms: _314  and  _315
REMARK  128  A    between atoms: _324  and  _326
REMARK  129  A    between atoms: _326  and  _327
REMARK  130  A    between atoms: _329  and  _331
REMARK  131  A    between atoms: _331  and  _332
REMARK  132  A    between atoms: _331  and  _334
REMARK  133  A    between atoms: _337  and  _339
REMARK  134  A    between atoms: _339  and  _340
REMARK  135  A    between atoms: _339  and  _342
REMARK  136  A    between atoms: _342  and  _343
REMARK  137  A    between atoms: _346  and  _348
REMARK  138  A    between atoms: _348  and  _349
REMARK  139  A    between atoms: _351  and  _353
REMARK  140  A    between atoms: _353  and  _354
REMARK  141  A    between atoms: _353  and  _356
REMARK  142  A    between atoms: _356  and  _357
REMARK  143  A    between atoms: _360  and  _362
REMARK  144  A    between atoms: _362  and  _363
REMARK  145  A    between atoms: _362  and  _365
REMARK  146  A    between atoms: _365  and  _366
REMARK  147  A    between atoms: _366  and  _367
REMARK  148  A    between atoms: _372  and  _374
REMARK  149  A    between atoms: _374  and  _375
REMARK  150  A    between atoms: _377  and  _379
REMARK  151  A    between atoms: _379  and  _380
REMARK  152  A    between atoms: _379  and  _382
REMARK  153  A    between atoms: _382  and  _383
REMARK  154  A    between atoms: _389  and  _391
REMARK  155  A    between atoms: _391  and  _392
REMARK  156  A    between atoms: _394  and  _396
REMARK  157  A    between atoms: _396  and  _397
REMARK  158  A    between atoms: _396  and  _399
REMARK  159  A    between atoms: _399  and  _400
REMARK  160  A    between atoms: _403  and  _405
REMARK  161  A    between atoms: _405  and  _406
REMARK  162  A    between atoms: _405  and  _408
REMARK  163  A    between atoms: _408  and  _409
REMARK  164  A    between atoms: _411  and  _413
REMARK  165  A    between atoms: _413  and  _414
REMARK  166  A    between atoms: _413  and  _416
REMARK  167  A    between atoms: _416  and  _417
REMARK  168  A    between atoms: _417  and  _418
REMARK  169  A    between atoms: _423  and  _425
REMARK  170  A    between atoms: _425  and  _426
REMARK  171  A    between atoms: _429  and  _431
REMARK  172  A    between atoms: _431  and  _432
REMARK  173  A    between atoms: _431  and  _434
REMARK  174  A    between atoms: _434  and  _435
REMARK  175  A    between atoms: _438  and  _440
REMARK  176  A    between atoms: _440  and  _441
REMARK  177  A    between atoms: _440  and  _443
REMARK  178  A    between atoms: _443  and  _444
REMARK  179  A    between atoms: _446  and  _448
REMARK  180  A    between atoms: _448  and  _449
REMARK  181  A    between atoms: _451  and  _453
REMARK  182  A    between atoms: _453  and  _454
REMARK  183  A    between atoms: _453  and  _456
REMARK  184  A    between atoms: _456  and  _457
REMARK  185  A    between atoms: _459  and  _461
REMARK  186  A    between atoms: _461  and  _462
REMARK  187  A    between atoms: _465  and  _467
REMARK  188  A    between atoms: _467  and  _468
REMARK  189  A    between atoms: _467  and  _470
REMARK  190  A    between atoms: _470  and  _471
REMARK  191  A    between atoms: _474  and  _476
REMARK  192  A    between atoms: _476  and  _477
REMARK  193  A    between atoms: _476  and  _479
REMARK  194  A    between atoms: _482  and  _484
REMARK  195  A    between atoms: _484  and  _485
REMARK  196  A    between atoms: _488  and  _490
REMARK  197  A    between atoms: _490  and  _491
REMARK  198  A    between atoms: _490  and  _493
REMARK  199  A    between atoms: _497  and  _498
REMARK  200  A    between atoms: _503  and  _505
REMARK  201  A    between atoms: _505  and  _506
REMARK  202  A    between atoms: _505  and  _508
REMARK  203  A    between atoms: _508  and  _509
REMARK  204  A    between atoms: _509  and  _510
REMARK  205  A    between atoms: _515  and  _517
REMARK  206  A    between atoms: _517  and  _518
REMARK  207  A    between atoms: _517  and  _520
REMARK  208  A    between atoms: _520  and  _521
REMARK  209  A    between atoms: _524  and  _526
REMARK  210  A    between atoms: _526  and  _527
REMARK  211  A    between atoms: _526  and  _529
REMARK  212  A    between atoms: _529  and  _530
REMARK  213  A    between atoms: _533  and  _535
REMARK  214  A    between atoms: _535  and  _536
REMARK  215  A    between atoms: _535  and  _538
REMARK  216  A    between atoms: _538  and  _539
REMARK                            x       y       z     vdW  Elec       q    Type
REMARK                         _______ _______ _______ _____ _____    ______ ____
ROOT
ATOM      1  O   HOH     1      51.635  17.585  15.659  0.00  0.00    +0.000 OA
ENDROOT
TORSDOF 0
REMARK  Name = ../refined-set-2016/2cli/2cli_pocket.pdb
REMARK  216 active torsions:
REMARK  status: ('A' for Active; 'I' for Inactive)
REMARK    1  A    between atoms: _1  and  _3
REMARK    2  A    between atoms: _3  and  _4
REMARK    3  A    between atoms: _3  and  _6
REMARK    4  A    between atoms: _10  and  _11
REMARK    5  A    between atoms: _16  and  _18
REMARK    6  A    between atoms: _18  and  _19
REMARK    7  A    between atoms: _18  and  _21
REMARK    8  A    between atoms: _21  and  _22
REMARK    9  A    between atoms: _28  and  _30
REMARK   10  A    between atoms: _30  and  _31
REMARK   11  A    between atoms: _30  and  _33
REMARK   12  A    between atoms: _36  and  _38
REMARK   13  A    between atoms: _38  and  _39
REMARK   14  A    between atoms: _38  and  _41
REMARK   15  A    between atoms: _41  and  _42
REMARK   16  A    between atoms: _45  and  _47
REMARK   17  A    between atoms: _47  and  _48
REMARK   18  A    between atoms: _47  and  _50
REMARK   19  A    between atoms: _50  and  _51
REMARK   20  A    between atoms: _54  and  _56
REMARK   21  A    between atoms: _56  and  _57
REMARK   22  A    between atoms: _56  and  _59
REMARK   23  A    between atoms: _59  and  _60
REMARK   24  A    between atoms: _60  and  _61
REMARK   25  A    between atoms: _64  and  _66
REMARK   26  A    between atoms: _66  and  _67
REMARK   27  A    between atoms: _66  and  _69
REMARK   28  A    between atoms: _69  and  _70
REMARK   29  A    between atoms: _73  and  _75
REMARK   30  A    between atoms: _75  and  _76
REMARK   31  A    between atoms: _78  and  _80
REMARK   32  A    between atoms: _80  and  _81
REMARK   33  A    between atoms: _80  and  _83
REMARK   34  A    between atoms: _83  and  _84
REMARK   35  A    between atoms: _87  and  _89
REMARK   36  A    between atoms: _89  and  _90
REMARK   37  A    between atoms: _93  and  _95
REMARK   38  A    between atoms: _95  and  _96
REMARK   39  A    between atoms: _95  and  _98
REMARK   40  A    between atoms: _98  and  _99
REMARK   41  A    between atoms: _102  and  _104
REMARK   42  A    between atoms: _104  and  _105
REMARK   43  A    between atoms: _107  and  _109
REMARK   44  A    between atoms: _109  and  _110
REMARK   45  A    between atoms: _109  and  _112
REMARK   46  A    between atoms: _112  and  _113
REMARK   47  A    between atoms: _116  and  _118
REMARK   48  A    between atoms: _118  and  _119
REMARK   49  A    between atoms: _118  and  _121
REMARK   50  A    between atoms: _121  and  _122
REMARK   51  A    between atoms: _125  and  _127
REMARK   52  A    between atoms: _127  and  _128
REMARK   53  A    between atoms: _130  and  _132
REMARK   54  A    between atoms: _132  and  _133
REMARK   55  A    between atoms: _132  and  _135
REMARK   56  A    between atoms: _135  and  _136
REMARK   57  A    between atoms: _139  and  _141
REMARK   58  A    between atoms: _141  and  _142
REMARK   59  A    between atoms: _141  and  _144
REMARK   60  A    between atoms: _144  and  _145
REMARK   61  A    between atoms: _148  and  _150
REMARK   62  A    between atoms: _150  and  _151
REMARK   63  A    between atoms: _150  and  _153
REMARK   64  A    between atoms: _153  and  _154
REMARK   65  A    between atoms: _154  and  _155
REMARK   66  A    between atoms: _157  and  _159
REMARK   67  A    between atoms: _159  and  _160
REMARK   68  A    between atoms: _159  and  _162
REMARK   69  A    between atoms: _162  and  _163
REMARK   70  A    between atoms: _168  and  _169
REMARK   71  A    between atoms: _171  and  _173
REMARK   72  A    between atoms: _173  and  _174
REMARK   73  A    between atoms: _173  and  _176
REMARK   74  A    between atoms: _176  and  _177
REMARK   75  A    between atoms: _180  and  _182
REMARK   76  A    between atoms: _182  and  _183
REMARK   77  A    between atoms: _182  and  _185
REMARK   78  A    between atoms: _188  and  _190
REMARK   79  A    between atoms: _190  and  _191
REMARK   80  A    between atoms: _194  and  _196
REMARK   81  A    between atoms: _196  and  _197
REMARK   82  A    between atoms: _196  and  _199
REMARK   83  A    between atoms: _199  and  _200
REMARK   84  A    between atoms: _203  and  _205
REMARK   85  A    between atoms: _205  and  _206
REMARK   86  A    between atoms: _205  and  _208
REMARK   87  A    between atoms: _212  and  _213
REMARK   88  A    between atoms: _218  and  _220
REMARK   89  A    between atoms: _220  and  _221
REMARK   90  A    between atoms: _220  and  _223
REMARK   91  A    between atoms: _223  and  _224
REMARK   92  A    between atoms: _227  and  _229
REMARK   93  A    between atoms: _229  and  _230
REMARK   94  A    between atoms: _229  and  _232
REMARK   95  A    between atoms: _232  and  _233
REMARK   96  A    between atoms: _239  and  _241
REMARK   97  A    between atoms: _241  and  _242
REMARK   98  A    between atoms: _241  and  _244
REMARK   99  A    between atoms: _244  and  _245
REMARK  100  A    between atoms: _248  and  _250
REMARK  101  A    between atoms: _250  and  _251
REMARK  102  A    between atoms: _250  and  _253
REMARK  103  A    between atoms: _256  and  _257
REMARK  104  A    between atoms: _262  and  _264
REMARK  105  A    between atoms: _264  and  _265
REMARK  106  A    between atoms: _264  and  _267
REMARK  107  A    between atoms: _267  and  _268
REMARK  108  A    between atoms: _273  and  _274
REMARK  109  A    between atoms: _276  and  _278
REMARK  110  A    between atoms: _278  and  _279
REMARK  111  A    between atoms: _278  and  _281
REMARK  112  A    between atoms: _281  and  _282
REMARK  113  A    between atoms: _287  and  _288
REMARK  114  A    between atoms: _290  and  _292
REMARK  115  A    between atoms: _292  and  _293
REMARK  116  A    between atoms: _292  and  _295
REMARK  117  A    between atoms: _295  and  _296
REMARK  118  A    between atoms: _299  and  _301
REMARK  119  A    between atoms: _301  and  _302
REMARK  120  A    between atoms: _301  and  _304
REMARK  121  A    between atoms: _304  and  _305
REMARK  122  A    between atoms: _307  and  _309
REMARK  123  A    between atoms: _309  and  _310
REMARK  124  A    between atoms: _309  and  _312
REMARK  125  A    between atoms: _312  and  _313
REMARK  126  A    between atoms: _313  and  _314
REMARK  127  A    between atoms: _314  and  _315
REMARK  128  A    between atoms: _324  and  _326
REMARK  129  A    between atoms: _326  and  _327
REMARK  130  A    between atoms: _329  and  _331
REMARK  131  A    between atoms: _331  and  _332
REMARK  132  A    between atoms: _331  and  _334
REMARK  133  A    between atoms: _337  and  _339
REMARK  134  A    between atoms: _339  and  _340
REMARK  135  A    between atoms: _339  and  _342
REMARK  136  A    between atoms: _342  and  _343
REMARK  137  A    between atoms: _346  and  _348
REMARK  138  A    between atoms: _348  and  _349
REMARK  139  A    between atoms: _351  and  _353
REMARK  140  A    between atoms: _353  and  _354
REMARK  141  A    between atoms: _353  and  _356
REMARK  142  A    between atoms: _356  and  _357
REMARK  143  A    between atoms: _360  and  _362
REMARK  144  A    between atoms: _362  and  _363
REMARK  145  A    between atoms: _362  and  _365
REMARK  146  A    between atoms: _365  and  _366
REMARK  147  A    between atoms: _366  and  _367
REMARK  148  A    between atoms: _372  and  _374
REMARK  149  A    between atoms: _374  and  _375
REMARK  150  A    between atoms: _377  and  _379
REMARK  151  A    between atoms: _379  and  _380
REMARK  152  A    between atoms: _379  and  _382
REMARK  153  A    between atoms: _382  and  _383
REMARK  154  A    between atoms: _389  and  _391
REMARK  155  A    between atoms: _391  and  _392
REMARK  156  A    between atoms: _394  and  _396
REMARK  157  A    between atoms: _396  and  _397
REMARK  158  A    between atoms: _396  and  _399
REMARK  159  A    between atoms: _399  and  _400
REMARK  160  A    between atoms: _403  and  _405
REMARK  161  A    between atoms: _405  and  _406
REMARK  162  A    between atoms: _405  and  _408
REMARK  163  A    between atoms: _408  and  _409
REMARK  164  A    between atoms: _411  and  _413
REMARK  165  A    between atoms: _413  and  _414
REMARK  166  A    between atoms: _413  and  _416
REMARK  167  A    between atoms: _416  and  _417
REMARK  168  A    between atoms: _417  and  _418
REMARK  169  A    between atoms: _423  and  _425
REMARK  170  A    between atoms: _425  and  _426
REMARK  171  A    between atoms: _429  and  _431
REMARK  172  A    between atoms: _431  and  _432
REMARK  173  A    between atoms: _431  and  _434
REMARK  174  A    between atoms: _434  and  _435
REMARK  175  A    between atoms: _438  and  _440
REMARK  176  A    between atoms: _440  and  _441
REMARK  177  A    between atoms: _440  and  _443
REMARK  178  A    between atoms: _443  and  _444
REMARK  179  A    between atoms: _446  and  _448
REMARK  180  A    between atoms: _448  and  _449
REMARK  181  A    between atoms: _451  and  _453
REMARK  182  A    between atoms: _453  and  _454
REMARK  183  A    between atoms: _453  and  _456
REMARK  184  A    between atoms: _456  and  _457
REMARK  185  A    between atoms: _459  and  _461
REMARK  186  A    between atoms: _461  and  _462
REMARK  187  A    between atoms: _465  and  _467
REMARK  188  A    between atoms: _467  and  _468
REMARK  189  A    between atoms: _467  and  _470
REMARK  190  A    between atoms: _470  and  _471
REMARK  191  A    between atoms: _474  and  _476
REMARK  192  A    between atoms: _476  and  _477
REMARK  193  A    between atoms: _476  and  _479
REMARK  194  A    between atoms: _482  and  _484
REMARK  195  A    between atoms: _484  and  _485
REMARK  196  A    between atoms: _488  and  _490
REMARK  197  A    between atoms: _490  and  _491
REMARK  198  A    between atoms: _490  and  _493
REMARK  199  A    between atoms: _497  and  _498
REMARK  200  A    between atoms: _503  and  _505
REMARK  201  A    between atoms: _505  and  _506
REMARK  202  A    between atoms: _505  and  _508
REMARK  203  A    between atoms: _508  and  _509
REMARK  204  A    between atoms: _509  and  _510
REMARK  205  A    between atoms: _515  and  _517
REMARK  206  A    between atoms: _517  and  _518
REMARK  207  A    between atoms: _517  and  _520
REMARK  208  A    between atoms: _520  and  _521
REMARK  209  A    between atoms: _524  and  _526
REMARK  210  A    between atoms: _526  and  _527
REMARK  211  A    between atoms: _526  and  _529
REMARK  212  A    between atoms: _529  and  _530
REMARK  213  A    between atoms: _533  and  _535
REMARK  214  A    between atoms: _535  and  _536
REMARK  215  A    between atoms: _535  and  _538
REMARK  216  A    between atoms: _538  and  _539
REMARK                            x       y       z     vdW  Elec       q    Type
REMARK                         _______ _______ _______ _____ _____    ______ ____
ROOT
ATOM      1  O   HOH     1      51.233  17.652  12.598  0.00  0.00    +0.000 OA
ENDROOT
TORSDOF 0
