REMARK  Name = ../refined-set-2016/3iae/3iae_pocket.pdb
REMARK  283 active torsions:
REMARK  status: ('A' for Active; 'I' for Inactive)
REMARK    1  A    between atoms: _1  and  _3
REMARK    2  A    between atoms: _3  and  _4
REMARK    3  A    between atoms: _3  and  _6
REMARK    4  A    between atoms: _6  and  _7
REMARK    5  A    between atoms: _10  and  _12
REMARK    6  A    between atoms: _12  and  _13
REMARK    7  A    between atoms: _12  and  _15
REMARK    8  A    between atoms: _15  and  _16
REMARK    9  A    between atoms: _21  and  _22
REMARK   10  A    between atoms: _24  and  _26
REMARK   11  A    between atoms: _26  and  _27
REMARK   12  A    between atoms: _26  and  _29
REMARK   13  A    between atoms: _29  and  _30
REMARK   14  A    between atoms: _34  and  _35
REMARK   15  A    between atoms: _40  and  _42
REMARK   16  A    between atoms: _42  and  _43
REMARK   17  A    between atoms: _42  and  _45
REMARK   18  A    between atoms: _45  and  _46
REMARK   19  A    between atoms: _49  and  _51
REMARK   20  A    between atoms: _51  and  _52
REMARK   21  A    between atoms: _54  and  _56
REMARK   22  A    between atoms: _56  and  _57
REMARK   23  A    between atoms: _60  and  _62
REMARK   24  A    between atoms: _62  and  _63
REMARK   25  A    between atoms: _62  and  _65
REMARK   26  A    between atoms: _65  and  _66
REMARK   27  A    between atoms: _69  and  _71
REMARK   28  A    between atoms: _71  and  _72
REMARK   29  A    between atoms: _71  and  _74
REMARK   30  A    between atoms: _74  and  _75
REMARK   31  A    between atoms: _78  and  _80
REMARK   32  A    between atoms: _80  and  _81
REMARK   33  A    between atoms: _80  and  _83
REMARK   34  A    between atoms: _83  and  _84
REMARK   35  A    between atoms: _89  and  _90
REMARK   36  A    between atoms: _92  and  _94
REMARK   37  A    between atoms: _94  and  _95
REMARK   38  A    between atoms: _94  and  _97
REMARK   39  A    between atoms: _97  and  _98
REMARK   40  A    between atoms: _101  and  _103
REMARK   41  A    between atoms: _103  and  _104
REMARK   42  A    between atoms: _103  and  _106
REMARK   43  A    between atoms: _106  and  _107
REMARK   44  A    between atoms: _117  and  _119
REMARK   45  A    between atoms: _119  and  _120
REMARK   46  A    between atoms: _119  and  _122
REMARK   47  A    between atoms: _122  and  _123
REMARK   48  A    between atoms: _126  and  _128
REMARK   49  A    between atoms: _128  and  _129
REMARK   50  A    between atoms: _128  and  _131
REMARK   51  A    between atoms: _131  and  _132
REMARK   52  A    between atoms: _137  and  _139
REMARK   53  A    between atoms: _139  and  _140
REMARK   54  A    between atoms: _142  and  _144
REMARK   55  A    between atoms: _144  and  _145
REMARK   56  A    between atoms: _144  and  _147
REMARK   57  A    between atoms: _147  and  _148
REMARK   58  A    between atoms: _153  and  _154
REMARK   59  A    between atoms: _156  and  _158
REMARK   60  A    between atoms: _158  and  _159
REMARK   61  A    between atoms: _158  and  _161
REMARK   62  A    between atoms: _161  and  _162
REMARK   63  A    between atoms: _165  and  _167
REMARK   64  A    between atoms: _167  and  _168
REMARK   65  A    between atoms: _170  and  _172
REMARK   66  A    between atoms: _172  and  _173
REMARK   67  A    between atoms: _172  and  _175
REMARK   68  A    between atoms: _175  and  _176
REMARK   69  A    between atoms: _178  and  _180
REMARK   70  A    between atoms: _180  and  _181
REMARK   71  A    between atoms: _180  and  _183
REMARK   72  A    between atoms: _183  and  _184
REMARK   73  A    between atoms: _184  and  _185
REMARK   74  A    between atoms: _187  and  _189
REMARK   75  A    between atoms: _189  and  _190
REMARK   76  A    between atoms: _192  and  _194
REMARK   77  A    between atoms: _194  and  _195
REMARK   78  A    between atoms: _194  and  _197
REMARK   79  A    between atoms: _200  and  _202
REMARK   80  A    between atoms: _202  and  _203
REMARK   81  A    between atoms: _202  and  _205
REMARK   82  A    between atoms: _205  and  _206
REMARK   83  A    between atoms: _209  and  _211
REMARK   84  A    between atoms: _211  and  _212
REMARK   85  A    between atoms: _214  and  _216
REMARK   86  A    between atoms: _216  and  _217
REMARK   87  A    between atoms: _216  and  _219
REMARK   88  A    between atoms: _219  and  _220
REMARK   89  A    between atoms: _220  and  _221
REMARK   90  A    between atoms: _221  and  CA_702
REMARK   91  A    between atoms: _223  and  _225
REMARK   92  A    between atoms: _225  and  _226
REMARK   93  A    between atoms: _228  and  _230
REMARK   94  A    between atoms: _230  and  _231
REMARK   95  A    between atoms: _230  and  _233
REMARK   96  A    between atoms: _233  and  _234
REMARK   97  A    between atoms: _236  and  _238
REMARK   98  A    between atoms: _238  and  _239
REMARK   99  A    between atoms: _238  and  _241
REMARK  100  A    between atoms: _244  and  _246
REMARK  101  A    between atoms: _246  and  _247
REMARK  102  A    between atoms: _249  and  _251
REMARK  103  A    between atoms: _251  and  _252
REMARK  104  A    between atoms: _251  and  _254
REMARK  105  A    between atoms: _254  and  _255
REMARK  106  A    between atoms: _260  and  _261
REMARK  107  A    between atoms: _263  and  _265
REMARK  108  A    between atoms: _265  and  _266
REMARK  109  A    between atoms: _265  and  _268
REMARK  110  A    between atoms: _268  and  _269
REMARK  111  A    between atoms: _272  and  _274
REMARK  112  A    between atoms: _274  and  _275
REMARK  113  A    between atoms: _274  and  _277
REMARK  114  A    between atoms: _275  and  _276
REMARK  115  A    between atoms: _275  and  _281
REMARK  116  A    between atoms: _276  and  CA_702
REMARK  117  A    between atoms: _277  and  _278
REMARK  118  A    between atoms: _278  and  _279
REMARK  119  A    between atoms: _281  and  _283
REMARK  120  A    between atoms: _283  and  _284
REMARK  121  A    between atoms: _283  and  _286
REMARK  122  A    between atoms: _286  and  _287
REMARK  123  A    between atoms: _292  and  _294
REMARK  124  A    between atoms: _294  and  _295
REMARK  125  A    between atoms: _294  and  _297
REMARK  126  A    between atoms: _297  and  _298
REMARK  127  A    between atoms: _303  and  _305
REMARK  128  A    between atoms: _305  and  _306
REMARK  129  A    between atoms: _305  and  _308
REMARK  130  A    between atoms: _308  and  _309
REMARK  131  A    between atoms: _309  and  _310
REMARK  132  A    between atoms: _315  and  _317
REMARK  133  A    between atoms: _317  and  _318
REMARK  134  A    between atoms: _317  and  _320
REMARK  135  A    between atoms: _320  and  _321
REMARK  136  A    between atoms: _323  and  _325
REMARK  137  A    between atoms: _325  and  _326
REMARK  138  A    between atoms: _325  and  _328
REMARK  139  A    between atoms: _328  and  _329
REMARK  140  A    between atoms: _339  and  _341
REMARK  141  A    between atoms: _341  and  _342
REMARK  142  A    between atoms: _344  and  _346
REMARK  143  A    between atoms: _346  and  _347
REMARK  144  A    between atoms: _350  and  _352
REMARK  145  A    between atoms: _352  and  _353
REMARK  146  A    between atoms: _352  and  _355
REMARK  147  A    between atoms: _355  and  _356
REMARK  148  A    between atoms: _359  and  _361
REMARK  149  A    between atoms: _361  and  _362
REMARK  150  A    between atoms: _361  and  _364
REMARK  151  A    between atoms: _364  and  _365
REMARK  152  A    between atoms: _368  and  _370
REMARK  153  A    between atoms: _370  and  _371
REMARK  154  A    between atoms: _370  and  _373
REMARK  155  A    between atoms: _373  and  _374
REMARK  156  A    between atoms: _379  and  _381
REMARK  157  A    between atoms: _381  and  _382
REMARK  158  A    between atoms: _381  and  _384
REMARK  159  A    between atoms: _384  and  _385
REMARK  160  A    between atoms: _391  and  _393
REMARK  161  A    between atoms: _393  and  _394
REMARK  162  A    between atoms: _393  and  _396
REMARK  163  A    between atoms: _396  and  _397
REMARK  164  A    between atoms: _397  and  _398
REMARK  165  A    between atoms: _403  and  _405
REMARK  166  A    between atoms: _405  and  _406
REMARK  167  A    between atoms: _408  and  _410
REMARK  168  A    between atoms: _410  and  _411
REMARK  169  A    between atoms: _410  and  _413
REMARK  170  A    between atoms: _413  and  _414
REMARK  171  A    between atoms: _417  and  _419
REMARK  172  A    between atoms: _419  and  _420
REMARK  173  A    between atoms: _419  and  _422
REMARK  174  A    between atoms: _422  and  _423
REMARK  175  A    between atoms: _426  and  _428
REMARK  176  A    between atoms: _428  and  _429
REMARK  177  A    between atoms: _428  and  _431
REMARK  178  A    between atoms: _431  and  _432
REMARK  179  A    between atoms: _437  and  _438
REMARK  180  A    between atoms: _440  and  _442
REMARK  181  A    between atoms: _442  and  _443
REMARK  182  A    between atoms: _442  and  _445
REMARK  183  A    between atoms: _448  and  _450
REMARK  184  A    between atoms: _450  and  _451
REMARK  185  A    between atoms: _454  and  _456
REMARK  186  A    between atoms: _456  and  _457
REMARK  187  A    between atoms: _456  and  _459
REMARK  188  A    between atoms: _459  and  _460
REMARK  189  A    between atoms: _463  and  _465
REMARK  190  A    between atoms: _465  and  _466
REMARK  191  A    between atoms: _465  and  _468
REMARK  192  A    between atoms: _468  and  _469
REMARK  193  A    between atoms: _469  and  _470
REMARK  194  A    between atoms: _473  and  _475
REMARK  195  A    between atoms: _475  and  _476
REMARK  196  A    between atoms: _475  and  _478
REMARK  197  A    between atoms: _478  and  _479
REMARK  198  A    between atoms: _479  and  _480
REMARK  199  A    between atoms: _483  and  _485
REMARK  200  A    between atoms: _485  and  _486
REMARK  201  A    between atoms: _485  and  _488
REMARK  202  A    between atoms: _488  and  _489
REMARK  203  A    between atoms: _492  and  _494
REMARK  204  A    between atoms: _494  and  _495
REMARK  205  A    between atoms: _494  and  _497
REMARK  206  A    between atoms: _497  and  _498
REMARK  207  A    between atoms: _503  and  _505
REMARK  208  A    between atoms: _505  and  _506
REMARK  209  A    between atoms: _508  and  _510
REMARK  210  A    between atoms: _510  and  _511
REMARK  211  A    between atoms: _510  and  _513
REMARK  212  A    between atoms: _513  and  _514
REMARK  213  A    between atoms: _516  and  _518
REMARK  214  A    between atoms: _518  and  _519
REMARK  215  A    between atoms: _518  and  _521
REMARK  216  A    between atoms: _521  and  _522
REMARK  217  A    between atoms: _527  and  _529
REMARK  218  A    between atoms: _529  and  _530
REMARK  219  A    between atoms: _529  and  _532
REMARK  220  A    between atoms: _532  and  _533
REMARK  221  A    between atoms: _536  and  _538
REMARK  222  A    between atoms: _538  and  _539
REMARK  223  A    between atoms: _538  and  _541
REMARK  224  A    between atoms: _541  and  _542
REMARK  225  A    between atoms: _545  and  _547
REMARK  226  A    between atoms: _547  and  _548
REMARK  227  A    between atoms: _547  and  _550
REMARK  228  A    between atoms: _550  and  _551
REMARK  229  A    between atoms: _551  and  _552
REMARK  230  A    between atoms: _552  and  _553
REMARK  231  A    between atoms: _562  and  _564
REMARK  232  A    between atoms: _564  and  _565
REMARK  233  A    between atoms: _564  and  _567
REMARK  234  A    between atoms: _567  and  _568
REMARK  235  A    between atoms: _573  and  _575
REMARK  236  A    between atoms: _575  and  _576
REMARK  237  A    between atoms: _575  and  _578
REMARK  238  A    between atoms: _578  and  _579
REMARK  239  A    between atoms: _579  and  _580
REMARK  240  A    between atoms: _583  and  _585
REMARK  241  A    between atoms: _585  and  _586
REMARK  242  A    between atoms: _589  and  _591
REMARK  243  A    between atoms: _591  and  _592
REMARK  244  A    between atoms: _591  and  _594
REMARK  245  A    between atoms: _597  and  _599
REMARK  246  A    between atoms: _599  and  _600
REMARK  247  A    between atoms: _599  and  _602
REMARK  248  A    between atoms: _602  and  _603
REMARK  249  A    between atoms: _606  and  _608
REMARK  250  A    between atoms: _608  and  _609
REMARK  251  A    between atoms: _612  and  _614
REMARK  252  A    between atoms: _614  and  _615
REMARK  253  A    between atoms: _617  and  _619
REMARK  254  A    between atoms: _619  and  _620
REMARK  255  A    between atoms: _622  and  _624
REMARK  256  A    between atoms: _624  and  _625
REMARK  257  A    between atoms: _627  and  _629
REMARK  258  A    between atoms: _629  and  _630
REMARK  259  A    between atoms: _629  and  _632
REMARK  260  A    between atoms: _632  and  _633
REMARK  261  A    between atoms: _639  and  _641
REMARK  262  A    between atoms: _641  and  _642
REMARK  263  A    between atoms: _641  and  _644
REMARK  264  A    between atoms: _644  and  _645
REMARK  265  A    between atoms: _648  and  _650
REMARK  266  A    between atoms: _650  and  _651
REMARK  267  A    between atoms: _650  and  _653
REMARK  268  A    between atoms: _653  and  _654
REMARK  269  A    between atoms: _659  and  _661
REMARK  270  A    between atoms: _661  and  _662
REMARK  271  A    between atoms: _665  and  _667
REMARK  272  A    between atoms: _667  and  _668
REMARK  273  A    between atoms: _667  and  _670
REMARK  274  A    between atoms: _670  and  _671
REMARK  275  A    between atoms: _674  and  _676
REMARK  276  A    between atoms: _676  and  _677
REMARK  277  A    between atoms: _676  and  _679
REMARK  278  A    between atoms: _679  and  _680
REMARK  279  A    between atoms: _680  and  _681
REMARK  280  A    between atoms: _686  and  _688
REMARK  281  A    between atoms: _688  and  _689
REMARK  282  A    between atoms: _688  and  _691
REMARK  283  A    between atoms: _691  and  _692
REMARK                            x       y       z     vdW  Elec       q    Type
REMARK                         _______ _______ _______ _____ _____    ______ ____
ROOT
ATOM      1  CA  THR A   1      12.465 -54.608 -22.737  0.00  0.00    +0.160 C 
ENDROOT
BRANCH   1   2
ATOM      2  N   THR A   1      13.799 -55.121 -23.073  0.00  0.00    -0.237 NA
ATOM      3  H   THR A   1      13.987 -55.455 -24.040  0.00  0.00    +0.142 HD
ENDBRANCH   1   2
BRANCH   1   4
ATOM      4  C   THR A   1      11.806 -55.404 -21.590  0.00  0.00    +0.227 C 
ATOM      5  O   THR A   1      11.324 -54.798 -20.629  0.00  0.00    -0.287 OA
ENDBRANCH   1   4
BRANCH   1   6
ATOM      6  CB  THR A   1      11.541 -54.523 -23.982  0.00  0.00    +0.134 C 
ATOM      7  CG2 THR A   1      10.178 -53.935 -23.621  0.00  0.00    +0.034 C 
BRANCH   6   8
ATOM      8  OG1 THR A   1      12.161 -53.698 -24.977  0.00  0.00    -0.383 OA
ATOM      9  HG1 THR A   1      11.573 -53.643 -25.772  0.00  0.00    +0.210 HD
ENDBRANCH   6   8
ENDBRANCH   1   6
TORSDOF 4
REMARK  Name = ../refined-set-2016/3iae/3iae_pocket.pdb
REMARK  283 active torsions:
REMARK  status: ('A' for Active; 'I' for Inactive)
REMARK    1  A    between atoms: _1  and  _3
REMARK    2  A    between atoms: _3  and  _4
REMARK    3  A    between atoms: _3  and  _6
REMARK    4  A    between atoms: _6  and  _7
REMARK    5  A    between atoms: _10  and  _12
REMARK    6  A    between atoms: _12  and  _13
REMARK    7  A    between atoms: _12  and  _15
REMARK    8  A    between atoms: _15  and  _16
REMARK    9  A    between atoms: _21  and  _22
REMARK   10  A    between atoms: _24  and  _26
REMARK   11  A    between atoms: _26  and  _27
REMARK   12  A    between atoms: _26  and  _29
REMARK   13  A    between atoms: _29  and  _30
REMARK   14  A    between atoms: _34  and  _35
REMARK   15  A    between atoms: _40  and  _42
REMARK   16  A    between atoms: _42  and  _43
REMARK   17  A    between atoms: _42  and  _45
REMARK   18  A    between atoms: _45  and  _46
REMARK   19  A    between atoms: _49  and  _51
REMARK   20  A    between atoms: _51  and  _52
REMARK   21  A    between atoms: _54  and  _56
REMARK   22  A    between atoms: _56  and  _57
REMARK   23  A    between atoms: _60  and  _62
REMARK   24  A    between atoms: _62  and  _63
REMARK   25  A    between atoms: _62  and  _65
REMARK   26  A    between atoms: _65  and  _66
REMARK   27  A    between atoms: _69  and  _71
REMARK   28  A    between atoms: _71  and  _72
REMARK   29  A    between atoms: _71  and  _74
REMARK   30  A    between atoms: _74  and  _75
REMARK   31  A    between atoms: _78  and  _80
REMARK   32  A    between atoms: _80  and  _81
REMARK   33  A    between atoms: _80  and  _83
REMARK   34  A    between atoms: _83  and  _84
REMARK   35  A    between atoms: _89  and  _90
REMARK   36  A    between atoms: _92  and  _94
REMARK   37  A    between atoms: _94  and  _95
REMARK   38  A    between atoms: _94  and  _97
REMARK   39  A    between atoms: _97  and  _98
REMARK   40  A    between atoms: _101  and  _103
REMARK   41  A    between atoms: _103  and  _104
REMARK   42  A    between atoms: _103  and  _106
REMARK   43  A    between atoms: _106  and  _107
REMARK   44  A    between atoms: _117  and  _119
REMARK   45  A    between atoms: _119  and  _120
REMARK   46  A    between atoms: _119  and  _122
REMARK   47  A    between atoms: _122  and  _123
REMARK   48  A    between atoms: _126  and  _128
REMARK   49  A    between atoms: _128  and  _129
REMARK   50  A    between atoms: _128  and  _131
REMARK   51  A    between atoms: _131  and  _132
REMARK   52  A    between atoms: _137  and  _139
REMARK   53  A    between atoms: _139  and  _140
REMARK   54  A    between atoms: _142  and  _144
REMARK   55  A    between atoms: _144  and  _145
REMARK   56  A    between atoms: _144  and  _147
REMARK   57  A    between atoms: _147  and  _148
REMARK   58  A    between atoms: _153  and  _154
REMARK   59  A    between atoms: _156  and  _158
REMARK   60  A    between atoms: _158  and  _159
REMARK   61  A    between atoms: _158  and  _161
REMARK   62  A    between atoms: _161  and  _162
REMARK   63  A    between atoms: _165  and  _167
REMARK   64  A    between atoms: _167  and  _168
REMARK   65  A    between atoms: _170  and  _172
REMARK   66  A    between atoms: _172  and  _173
REMARK   67  A    between atoms: _172  and  _175
REMARK   68  A    between atoms: _175  and  _176
REMARK   69  A    between atoms: _178  and  _180
REMARK   70  A    between atoms: _180  and  _181
REMARK   71  A    between atoms: _180  and  _183
REMARK   72  A    between atoms: _183  and  _184
REMARK   73  A    between atoms: _184  and  _185
REMARK   74  A    between atoms: _187  and  _189
REMARK   75  A    between atoms: _189  and  _190
REMARK   76  A    between atoms: _192  and  _194
REMARK   77  A    between atoms: _194  and  _195
REMARK   78  A    between atoms: _194  and  _197
REMARK   79  A    between atoms: _200  and  _202
REMARK   80  A    between atoms: _202  and  _203
REMARK   81  A    between atoms: _202  and  _205
REMARK   82  A    between atoms: _205  and  _206
REMARK   83  A    between atoms: _209  and  _211
REMARK   84  A    between atoms: _211  and  _212
REMARK   85  A    between atoms: _214  and  _216
REMARK   86  A    between atoms: _216  and  _217
REMARK   87  A    between atoms: _216  and  _219
REMARK   88  A    between atoms: _219  and  _220
REMARK   89  A    between atoms: _220  and  _221
REMARK   90  A    between atoms: _221  and  CA_702
REMARK   91  A    between atoms: _223  and  _225
REMARK   92  A    between atoms: _225  and  _226
REMARK   93  A    between atoms: _228  and  _230
REMARK   94  A    between atoms: _230  and  _231
REMARK   95  A    between atoms: _230  and  _233
REMARK   96  A    between atoms: _233  and  _234
REMARK   97  A    between atoms: _236  and  _238
REMARK   98  A    between atoms: _238  and  _239
REMARK   99  A    between atoms: _238  and  _241
REMARK  100  A    between atoms: _244  and  _246
REMARK  101  A    between atoms: _246  and  _247
REMARK  102  A    between atoms: _249  and  _251
REMARK  103  A    between atoms: _251  and  _252
REMARK  104  A    between atoms: _251  and  _254
REMARK  105  A    between atoms: _254  and  _255
REMARK  106  A    between atoms: _260  and  _261
REMARK  107  A    between atoms: _263  and  _265
REMARK  108  A    between atoms: _265  and  _266
REMARK  109  A    between atoms: _265  and  _268
REMARK  110  A    between atoms: _268  and  _269
REMARK  111  A    between atoms: _272  and  _274
REMARK  112  A    between atoms: _274  and  _275
REMARK  113  A    between atoms: _274  and  _277
REMARK  114  A    between atoms: _275  and  _276
REMARK  115  A    between atoms: _275  and  _281
REMARK  116  A    between atoms: _276  and  CA_702
REMARK  117  A    between atoms: _277  and  _278
REMARK  118  A    between atoms: _278  and  _279
REMARK  119  A    between atoms: _281  and  _283
REMARK  120  A    between atoms: _283  and  _284
REMARK  121  A    between atoms: _283  and  _286
REMARK  122  A    between atoms: _286  and  _287
REMARK  123  A    between atoms: _292  and  _294
REMARK  124  A    between atoms: _294  and  _295
REMARK  125  A    between atoms: _294  and  _297
REMARK  126  A    between atoms: _297  and  _298
REMARK  127  A    between atoms: _303  and  _305
REMARK  128  A    between atoms: _305  and  _306
REMARK  129  A    between atoms: _305  and  _308
REMARK  130  A    between atoms: _308  and  _309
REMARK  131  A    between atoms: _309  and  _310
REMARK  132  A    between atoms: _315  and  _317
REMARK  133  A    between atoms: _317  and  _318
REMARK  134  A    between atoms: _317  and  _320
REMARK  135  A    between atoms: _320  and  _321
REMARK  136  A    between atoms: _323  and  _325
REMARK  137  A    between atoms: _325  and  _326
REMARK  138  A    between atoms: _325  and  _328
REMARK  139  A    between atoms: _328  and  _329
REMARK  140  A    between atoms: _339  and  _341
REMARK  141  A    between atoms: _341  and  _342
REMARK  142  A    between atoms: _344  and  _346
REMARK  143  A    between atoms: _346  and  _347
REMARK  144  A    between atoms: _350  and  _352
REMARK  145  A    between atoms: _352  and  _353
REMARK  146  A    between atoms: _352  and  _355
REMARK  147  A    between atoms: _355  and  _356
REMARK  148  A    between atoms: _359  and  _361
REMARK  149  A    between atoms: _361  and  _362
REMARK  150  A    between atoms: _361  and  _364
REMARK  151  A    between atoms: _364  and  _365
REMARK  152  A    between atoms: _368  and  _370
REMARK  153  A    between atoms: _370  and  _371
REMARK  154  A    between atoms: _370  and  _373
REMARK  155  A    between atoms: _373  and  _374
REMARK  156  A    between atoms: _379  and  _381
REMARK  157  A    between atoms: _381  and  _382
REMARK  158  A    between atoms: _381  and  _384
REMARK  159  A    between atoms: _384  and  _385
REMARK  160  A    between atoms: _391  and  _393
REMARK  161  A    between atoms: _393  and  _394
REMARK  162  A    between atoms: _393  and  _396
REMARK  163  A    between atoms: _396  and  _397
REMARK  164  A    between atoms: _397  and  _398
REMARK  165  A    between atoms: _403  and  _405
REMARK  166  A    between atoms: _405  and  _406
REMARK  167  A    between atoms: _408  and  _410
REMARK  168  A    between atoms: _410  and  _411
REMARK  169  A    between atoms: _410  and  _413
REMARK  170  A    between atoms: _413  and  _414
REMARK  171  A    between atoms: _417  and  _419
REMARK  172  A    between atoms: _419  and  _420
REMARK  173  A    between atoms: _419  and  _422
REMARK  174  A    between atoms: _422  and  _423
REMARK  175  A    between atoms: _426  and  _428
REMARK  176  A    between atoms: _428  and  _429
REMARK  177  A    between atoms: _428  and  _431
REMARK  178  A    between atoms: _431  and  _432
REMARK  179  A    between atoms: _437  and  _438
REMARK  180  A    between atoms: _440  and  _442
REMARK  181  A    between atoms: _442  and  _443
REMARK  182  A    between atoms: _442  and  _445
REMARK  183  A    between atoms: _448  and  _450
REMARK  184  A    between atoms: _450  and  _451
REMARK  185  A    between atoms: _454  and  _456
REMARK  186  A    between atoms: _456  and  _457
REMARK  187  A    between atoms: _456  and  _459
REMARK  188  A    between atoms: _459  and  _460
REMARK  189  A    between atoms: _463  and  _465
REMARK  190  A    between atoms: _465  and  _466
REMARK  191  A    between atoms: _465  and  _468
REMARK  192  A    between atoms: _468  and  _469
REMARK  193  A    between atoms: _469  and  _470
REMARK  194  A    between atoms: _473  and  _475
REMARK  195  A    between atoms: _475  and  _476
REMARK  196  A    between atoms: _475  and  _478
REMARK  197  A    between atoms: _478  and  _479
REMARK  198  A    between atoms: _479  and  _480
REMARK  199  A    between atoms: _483  and  _485
REMARK  200  A    between atoms: _485  and  _486
REMARK  201  A    between atoms: _485  and  _488
REMARK  202  A    between atoms: _488  and  _489
REMARK  203  A    between atoms: _492  and  _494
REMARK  204  A    between atoms: _494  and  _495
REMARK  205  A    between atoms: _494  and  _497
REMARK  206  A    between atoms: _497  and  _498
REMARK  207  A    between atoms: _503  and  _505
REMARK  208  A    between atoms: _505  and  _506
REMARK  209  A    between atoms: _508  and  _510
REMARK  210  A    between atoms: _510  and  _511
REMARK  211  A    between atoms: _510  and  _513
REMARK  212  A    between atoms: _513  and  _514
REMARK  213  A    between atoms: _516  and  _518
REMARK  214  A    between atoms: _518  and  _519
REMARK  215  A    between atoms: _518  and  _521
REMARK  216  A    between atoms: _521  and  _522
REMARK  217  A    between atoms: _527  and  _529
REMARK  218  A    between atoms: _529  and  _530
REMARK  219  A    between atoms: _529  and  _532
REMARK  220  A    between atoms: _532  and  _533
REMARK  221  A    between atoms: _536  and  _538
REMARK  222  A    between atoms: _538  and  _539
REMARK  223  A    between atoms: _538  and  _541
REMARK  224  A    between atoms: _541  and  _542
REMARK  225  A    between atoms: _545  and  _547
REMARK  226  A    between atoms: _547  and  _548
REMARK  227  A    between atoms: _547  and  _550
REMARK  228  A    between atoms: _550  and  _551
REMARK  229  A    between atoms: _551  and  _552
REMARK  230  A    between atoms: _552  and  _553
REMARK  231  A    between atoms: _562  and  _564
REMARK  232  A    between atoms: _564  and  _565
REMARK  233  A    between atoms: _564  and  _567
REMARK  234  A    between atoms: _567  and  _568
REMARK  235  A    between atoms: _573  and  _575
REMARK  236  A    between atoms: _575  and  _576
REMARK  237  A    between atoms: _575  and  _578
REMARK  238  A    between atoms: _578  and  _579
REMARK  239  A    between atoms: _579  and  _580
REMARK  240  A    between atoms: _583  and  _585
REMARK  241  A    between atoms: _585  and  _586
REMARK  242  A    between atoms: _589  and  _591
REMARK  243  A    between atoms: _591  and  _592
REMARK  244  A    between atoms: _591  and  _594
REMARK  245  A    between atoms: _597  and  _599
REMARK  246  A    between atoms: _599  and  _600
REMARK  247  A    between atoms: _599  and  _602
REMARK  248  A    between atoms: _602  and  _603
REMARK  249  A    between atoms: _606  and  _608
REMARK  250  A    between atoms: _608  and  _609
REMARK  251  A    between atoms: _612  and  _614
REMARK  252  A    between atoms: _614  and  _615
REMARK  253  A    between atoms: _617  and  _619
REMARK  254  A    between atoms: _619  and  _620
REMARK  255  A    between atoms: _622  and  _624
REMARK  256  A    between atoms: _624  and  _625
REMARK  257  A    between atoms: _627  and  _629
REMARK  258  A    between atoms: _629  and  _630
REMARK  259  A    between atoms: _629  and  _632
REMARK  260  A    between atoms: _632  and  _633
REMARK  261  A    between atoms: _639  and  _641
REMARK  262  A    between atoms: _641  and  _642
REMARK  263  A    between atoms: _641  and  _644
REMARK  264  A    between atoms: _644  and  _645
REMARK  265  A    between atoms: _648  and  _650
REMARK  266  A    between atoms: _650  and  _651
REMARK  267  A    between atoms: _650  and  _653
REMARK  268  A    between atoms: _653  and  _654
REMARK  269  A    between atoms: _659  and  _661
REMARK  270  A    between atoms: _661  and  _662
REMARK  271  A    between atoms: _665  and  _667
REMARK  272  A    between atoms: _667  and  _668
REMARK  273  A    between atoms: _667  and  _670
REMARK  274  A    between atoms: _670  and  _671
REMARK  275  A    between atoms: _674  and  _676
REMARK  276  A    between atoms: _676  and  _677
REMARK  277  A    between atoms: _676  and  _679
REMARK  278  A    between atoms: _679  and  _680
REMARK  279  A    between atoms: _680  and  _681
REMARK  280  A    between atoms: _686  and  _688
REMARK  281  A    between atoms: _688  and  _689
REMARK  282  A    between atoms: _688  and  _691
REMARK  283  A    between atoms: _691  and  _692
REMARK                            x       y       z     vdW  Elec       q    Type
REMARK                         _______ _______ _______ _____ _____    ______ ____
ROOT
ATOM      1  CG  TYR A   1      -3.554 -51.699 -13.663  0.00  0.00    -0.020 A 
ATOM      2  CD2 TYR A   1      -4.923 -51.462 -13.797  0.00  0.00    -0.001 A 
ATOM      3  CE2 TYR A   1      -5.396 -50.292 -14.384  0.00  0.00    +0.036 A 
ATOM      4  CZ  TYR A   1      -4.493 -49.352 -14.855  0.00  0.00    +0.134 A 
ATOM      5  CE1 TYR A   1      -3.130 -49.569 -14.745  0.00  0.00    +0.036 A 
ATOM      6  CD1 TYR A   1      -2.668 -50.739 -14.153  0.00  0.00    -0.001 A 
ENDROOT
BRANCH   4   7
ATOM      7  OH  TYR A   1      -4.950 -48.193 -15.439  0.00  0.00    -0.506 OA
ATOM      8  HH  TYR A   1      -5.940 -48.193 -15.439  0.00  0.00    +0.292 HD
ENDBRANCH   4   7
BRANCH   1   9
ATOM      9  CB  TYR A   1      -3.036 -52.976 -13.030  0.00  0.00    +0.051 C 
BRANCH   9  10
ATOM     10  CA  TYR A   1      -3.665 -53.332 -11.677  0.00  0.00    +0.137 C 
BRANCH  10  11
ATOM     11  N   TYR A   1      -3.521 -52.232 -10.718  0.00  0.00    -0.239 NA
ATOM     12  H   TYR A   1      -3.170 -51.312 -11.053  0.00  0.00    +0.142 HD
ENDBRANCH  10  11
BRANCH  10  13
ATOM     13  C   TYR A   1      -3.077 -54.646 -11.157  0.00  0.00    +0.224 C 
ATOM     14  O   TYR A   1      -3.744 -55.683 -11.180  0.00  0.00    -0.287 OA
ENDBRANCH  10  13
ENDBRANCH   9  10
ENDBRANCH   1   9
TORSDOF 5
REMARK  Name = ../refined-set-2016/3iae/3iae_pocket.pdb
REMARK  283 active torsions:
REMARK  status: ('A' for Active; 'I' for Inactive)
REMARK    1  A    between atoms: _1  and  _3
REMARK    2  A    between atoms: _3  and  _4
REMARK    3  A    between atoms: _3  and  _6
REMARK    4  A    between atoms: _6  and  _7
REMARK    5  A    between atoms: _10  and  _12
REMARK    6  A    between atoms: _12  and  _13
REMARK    7  A    between atoms: _12  and  _15
REMARK    8  A    between atoms: _15  and  _16
REMARK    9  A    between atoms: _21  and  _22
REMARK   10  A    between atoms: _24  and  _26
REMARK   11  A    between atoms: _26  and  _27
REMARK   12  A    between atoms: _26  and  _29
REMARK   13  A    between atoms: _29  and  _30
REMARK   14  A    between atoms: _34  and  _35
REMARK   15  A    between atoms: _40  and  _42
REMARK   16  A    between atoms: _42  and  _43
REMARK   17  A    between atoms: _42  and  _45
REMARK   18  A    between atoms: _45  and  _46
REMARK   19  A    between atoms: _49  and  _51
REMARK   20  A    between atoms: _51  and  _52
REMARK   21  A    between atoms: _54  and  _56
REMARK   22  A    between atoms: _56  and  _57
REMARK   23  A    between atoms: _60  and  _62
REMARK   24  A    between atoms: _62  and  _63
REMARK   25  A    between atoms: _62  and  _65
REMARK   26  A    between atoms: _65  and  _66
REMARK   27  A    between atoms: _69  and  _71
REMARK   28  A    between atoms: _71  and  _72
REMARK   29  A    between atoms: _71  and  _74
REMARK   30  A    between atoms: _74  and  _75
REMARK   31  A    between atoms: _78  and  _80
REMARK   32  A    between atoms: _80  and  _81
REMARK   33  A    between atoms: _80  and  _83
REMARK   34  A    between atoms: _83  and  _84
REMARK   35  A    between atoms: _89  and  _90
REMARK   36  A    between atoms: _92  and  _94
REMARK   37  A    between atoms: _94  and  _95
REMARK   38  A    between atoms: _94  and  _97
REMARK   39  A    between atoms: _97  and  _98
REMARK   40  A    between atoms: _101  and  _103
REMARK   41  A    between atoms: _103  and  _104
REMARK   42  A    between atoms: _103  and  _106
REMARK   43  A    between atoms: _106  and  _107
REMARK   44  A    between atoms: _117  and  _119
REMARK   45  A    between atoms: _119  and  _120
REMARK   46  A    between atoms: _119  and  _122
REMARK   47  A    between atoms: _122  and  _123
REMARK   48  A    between atoms: _126  and  _128
REMARK   49  A    between atoms: _128  and  _129
REMARK   50  A    between atoms: _128  and  _131
REMARK   51  A    between atoms: _131  and  _132
REMARK   52  A    between atoms: _137  and  _139
REMARK   53  A    between atoms: _139  and  _140
REMARK   54  A    between atoms: _142  and  _144
REMARK   55  A    between atoms: _144  and  _145
REMARK   56  A    between atoms: _144  and  _147
REMARK   57  A    between atoms: _147  and  _148
REMARK   58  A    between atoms: _153  and  _154
REMARK   59  A    between atoms: _156  and  _158
REMARK   60  A    between atoms: _158  and  _159
REMARK   61  A    between atoms: _158  and  _161
REMARK   62  A    between atoms: _161  and  _162
REMARK   63  A    between atoms: _165  and  _167
REMARK   64  A    between atoms: _167  and  _168
REMARK   65  A    between atoms: _170  and  _172
REMARK   66  A    between atoms: _172  and  _173
REMARK   67  A    between atoms: _172  and  _175
REMARK   68  A    between atoms: _175  and  _176
REMARK   69  A    between atoms: _178  and  _180
REMARK   70  A    between atoms: _180  and  _181
REMARK   71  A    between atoms: _180  and  _183
REMARK   72  A    between atoms: _183  and  _184
REMARK   73  A    between atoms: _184  and  _185
REMARK   74  A    between atoms: _187  and  _189
REMARK   75  A    between atoms: _189  and  _190
REMARK   76  A    between atoms: _192  and  _194
REMARK   77  A    between atoms: _194  and  _195
REMARK   78  A    between atoms: _194  and  _197
REMARK   79  A    between atoms: _200  and  _202
REMARK   80  A    between atoms: _202  and  _203
REMARK   81  A    between atoms: _202  and  _205
REMARK   82  A    between atoms: _205  and  _206
REMARK   83  A    between atoms: _209  and  _211
REMARK   84  A    between atoms: _211  and  _212
REMARK   85  A    between atoms: _214  and  _216
REMARK   86  A    between atoms: _216  and  _217
REMARK   87  A    between atoms: _216  and  _219
REMARK   88  A    between atoms: _219  and  _220
REMARK   89  A    between atoms: _220  and  _221
REMARK   90  A    between atoms: _221  and  CA_702
REMARK   91  A    between atoms: _223  and  _225
REMARK   92  A    between atoms: _225  and  _226
REMARK   93  A    between atoms: _228  and  _230
REMARK   94  A    between atoms: _230  and  _231
REMARK   95  A    between atoms: _230  and  _233
REMARK   96  A    between atoms: _233  and  _234
REMARK   97  A    between atoms: _236  and  _238
REMARK   98  A    between atoms: _238  and  _239
REMARK   99  A    between atoms: _238  and  _241
REMARK  100  A    between atoms: _244  and  _246
REMARK  101  A    between atoms: _246  and  _247
REMARK  102  A    between atoms: _249  and  _251
REMARK  103  A    between atoms: _251  and  _252
REMARK  104  A    between atoms: _251  and  _254
REMARK  105  A    between atoms: _254  and  _255
REMARK  106  A    between atoms: _260  and  _261
REMARK  107  A    between atoms: _263  and  _265
REMARK  108  A    between atoms: _265  and  _266
REMARK  109  A    between atoms: _265  and  _268
REMARK  110  A    between atoms: _268  and  _269
REMARK  111  A    between atoms: _272  and  _274
REMARK  112  A    between atoms: _274  and  _275
REMARK  113  A    between atoms: _274  and  _277
REMARK  114  A    between atoms: _275  and  _276
REMARK  115  A    between atoms: _275  and  _281
REMARK  116  A    between atoms: _276  and  CA_702
REMARK  117  A    between atoms: _277  and  _278
REMARK  118  A    between atoms: _278  and  _279
REMARK  119  A    between atoms: _281  and  _283
REMARK  120  A    between atoms: _283  and  _284
REMARK  121  A    between atoms: _283  and  _286
REMARK  122  A    between atoms: _286  and  _287
REMARK  123  A    between atoms: _292  and  _294
REMARK  124  A    between atoms: _294  and  _295
REMARK  125  A    between atoms: _294  and  _297
REMARK  126  A    between atoms: _297  and  _298
REMARK  127  A    between atoms: _303  and  _305
REMARK  128  A    between atoms: _305  and  _306
REMARK  129  A    between atoms: _305  and  _308
REMARK  130  A    between atoms: _308  and  _309
REMARK  131  A    between atoms: _309  and  _310
REMARK  132  A    between atoms: _315  and  _317
REMARK  133  A    between atoms: _317  and  _318
REMARK  134  A    between atoms: _317  and  _320
REMARK  135  A    between atoms: _320  and  _321
REMARK  136  A    between atoms: _323  and  _325
REMARK  137  A    between atoms: _325  and  _326
REMARK  138  A    between atoms: _325  and  _328
REMARK  139  A    between atoms: _328  and  _329
REMARK  140  A    between atoms: _339  and  _341
REMARK  141  A    between atoms: _341  and  _342
REMARK  142  A    between atoms: _344  and  _346
REMARK  143  A    between atoms: _346  and  _347
REMARK  144  A    between atoms: _350  and  _352
REMARK  145  A    between atoms: _352  and  _353
REMARK  146  A    between atoms: _352  and  _355
REMARK  147  A    between atoms: _355  and  _356
REMARK  148  A    between atoms: _359  and  _361
REMARK  149  A    between atoms: _361  and  _362
REMARK  150  A    between atoms: _361  and  _364
REMARK  151  A    between atoms: _364  and  _365
REMARK  152  A    between atoms: _368  and  _370
REMARK  153  A    between atoms: _370  and  _371
REMARK  154  A    between atoms: _370  and  _373
REMARK  155  A    between atoms: _373  and  _374
REMARK  156  A    between atoms: _379  and  _381
REMARK  157  A    between atoms: _381  and  _382
REMARK  158  A    between atoms: _381  and  _384
REMARK  159  A    between atoms: _384  and  _385
REMARK  160  A    between atoms: _391  and  _393
REMARK  161  A    between atoms: _393  and  _394
REMARK  162  A    between atoms: _393  and  _396
REMARK  163  A    between atoms: _396  and  _397
REMARK  164  A    between atoms: _397  and  _398
REMARK  165  A    between atoms: _403  and  _405
REMARK  166  A    between atoms: _405  and  _406
REMARK  167  A    between atoms: _408  and  _410
REMARK  168  A    between atoms: _410  and  _411
REMARK  169  A    between atoms: _410  and  _413
REMARK  170  A    between atoms: _413  and  _414
REMARK  171  A    between atoms: _417  and  _419
REMARK  172  A    between atoms: _419  and  _420
REMARK  173  A    between atoms: _419  and  _422
REMARK  174  A    between atoms: _422  and  _423
REMARK  175  A    between atoms: _426  and  _428
REMARK  176  A    between atoms: _428  and  _429
REMARK  177  A    between atoms: _428  and  _431
REMARK  178  A    between atoms: _431  and  _432
REMARK  179  A    between atoms: _437  and  _438
REMARK  180  A    between atoms: _440  and  _442
REMARK  181  A    between atoms: _442  and  _443
REMARK  182  A    between atoms: _442  and  _445
REMARK  183  A    between atoms: _448  and  _450
REMARK  184  A    between atoms: _450  and  _451
REMARK  185  A    between atoms: _454  and  _456
REMARK  186  A    between atoms: _456  and  _457
REMARK  187  A    between atoms: _456  and  _459
REMARK  188  A    between atoms: _459  and  _460
REMARK  189  A    between atoms: _463  and  _465
REMARK  190  A    between atoms: _465  and  _466
REMARK  191  A    between atoms: _465  and  _468
REMARK  192  A    between atoms: _468  and  _469
REMARK  193  A    between atoms: _469  and  _470
REMARK  194  A    between atoms: _473  and  _475
REMARK  195  A    between atoms: _475  and  _476
REMARK  196  A    between atoms: _475  and  _478
REMARK  197  A    between atoms: _478  and  _479
REMARK  198  A    between atoms: _479  and  _480
REMARK  199  A    between atoms: _483  and  _485
REMARK  200  A    between atoms: _485  and  _486
REMARK  201  A    between atoms: _485  and  _488
REMARK  202  A    between atoms: _488  and  _489
REMARK  203  A    between atoms: _492  and  _494
REMARK  204  A    between atoms: _494  and  _495
REMARK  205  A    between atoms: _494  and  _497
REMARK  206  A    between atoms: _497  and  _498
REMARK  207  A    between atoms: _503  and  _505
REMARK  208  A    between atoms: _505  and  _506
REMARK  209  A    between atoms: _508  and  _510
REMARK  210  A    between atoms: _510  and  _511
REMARK  211  A    between atoms: _510  and  _513
REMARK  212  A    between atoms: _513  and  _514
REMARK  213  A    between atoms: _516  and  _518
REMARK  214  A    between atoms: _518  and  _519
REMARK  215  A    between atoms: _518  and  _521
REMARK  216  A    between atoms: _521  and  _522
REMARK  217  A    between atoms: _527  and  _529
REMARK  218  A    between atoms: _529  and  _530
REMARK  219  A    between atoms: _529  and  _532
REMARK  220  A    between atoms: _532  and  _533
REMARK  221  A    between atoms: _536  and  _538
REMARK  222  A    between atoms: _538  and  _539
REMARK  223  A    between atoms: _538  and  _541
REMARK  224  A    between atoms: _541  and  _542
REMARK  225  A    between atoms: _545  and  _547
REMARK  226  A    between atoms: _547  and  _548
REMARK  227  A    between atoms: _547  and  _550
REMARK  228  A    between atoms: _550  and  _551
REMARK  229  A    between atoms: _551  and  _552
REMARK  230  A    between atoms: _552  and  _553
REMARK  231  A    between atoms: _562  and  _564
REMARK  232  A    between atoms: _564  and  _565
REMARK  233  A    between atoms: _564  and  _567
REMARK  234  A    between atoms: _567  and  _568
REMARK  235  A    between atoms: _573  and  _575
REMARK  236  A    between atoms: _575  and  _576
REMARK  237  A    between atoms: _575  and  _578
REMARK  238  A    between atoms: _578  and  _579
REMARK  239  A    between atoms: _579  and  _580
REMARK  240  A    between atoms: _583  and  _585
REMARK  241  A    between atoms: _585  and  _586
REMARK  242  A    between atoms: _589  and  _591
REMARK  243  A    between atoms: _591  and  _592
REMARK  244  A    between atoms: _591  and  _594
REMARK  245  A    between atoms: _597  and  _599
REMARK  246  A    between atoms: _599  and  _600
REMARK  247  A    between atoms: _599  and  _602
REMARK  248  A    between atoms: _602  and  _603
REMARK  249  A    between atoms: _606  and  _608
REMARK  250  A    between atoms: _608  and  _609
REMARK  251  A    between atoms: _612  and  _614
REMARK  252  A    between atoms: _614  and  _615
REMARK  253  A    between atoms: _617  and  _619
REMARK  254  A    between atoms: _619  and  _620
REMARK  255  A    between atoms: _622  and  _624
REMARK  256  A    between atoms: _624  and  _625
REMARK  257  A    between atoms: _627  and  _629
REMARK  258  A    between atoms: _629  and  _630
REMARK  259  A    between atoms: _629  and  _632
REMARK  260  A    between atoms: _632  and  _633
REMARK  261  A    between atoms: _639  and  _641
REMARK  262  A    between atoms: _641  and  _642
REMARK  263  A    between atoms: _641  and  _644
REMARK  264  A    between atoms: _644  and  _645
REMARK  265  A    between atoms: _648  and  _650
REMARK  266  A    between atoms: _650  and  _651
REMARK  267  A    between atoms: _650  and  _653
REMARK  268  A    between atoms: _653  and  _654
REMARK  269  A    between atoms: _659  and  _661
REMARK  270  A    between atoms: _661  and  _662
REMARK  271  A    between atoms: _665  and  _667
REMARK  272  A    between atoms: _667  and  _668
REMARK  273  A    between atoms: _667  and  _670
REMARK  274  A    between atoms: _670  and  _671
REMARK  275  A    between atoms: _674  and  _676
REMARK  276  A    between atoms: _676  and  _677
REMARK  277  A    between atoms: _676  and  _679
REMARK  278  A    between atoms: _679  and  _680
REMARK  279  A    between atoms: _680  and  _681
REMARK  280  A    between atoms: _686  and  _688
REMARK  281  A    between atoms: _688  and  _689
REMARK  282  A    between atoms: _688  and  _691
REMARK  283  A    between atoms: _691  and  _692
REMARK                            x       y       z     vdW  Elec       q    Type
REMARK                         _______ _______ _______ _____ _____    ______ ____
ROOT
ATOM      1  CA  LEU A   1       1.227 -43.453 -12.071  0.00  0.00    +0.133 C 
ENDROOT
BRANCH   1   2
ATOM      2  N   LEU A   1       2.248 -43.445 -11.018  0.00  0.00    -0.239 NA
ATOM      3  H   LEU A   1       3.181 -43.853 -11.229  0.00  0.00    +0.142 HD
ENDBRANCH   1   2
BRANCH   1   4
ATOM      4  C   LEU A   1      -0.119 -44.035 -11.629  0.00  0.00    +0.224 C 
ATOM      5  O   LEU A   1      -1.170 -43.438 -11.877  0.00  0.00    -0.287 OA
ENDBRANCH   1   4
BRANCH   1   6
ATOM      6  CB  LEU A   1       1.747 -44.192 -13.313  0.00  0.00    +0.025 C 
BRANCH   6   7
ATOM      7  CG  LEU A   1       0.839 -44.320 -14.542  0.00  0.00    +0.002 C 
ATOM      8  CD2 LEU A   1       0.588 -42.966 -15.202  0.00  0.00    +0.000 C 
ATOM      9  CD1 LEU A   1       1.434 -45.305 -15.542  0.00  0.00    +0.000 C 
ENDBRANCH   6   7
ENDBRANCH   1   6
TORSDOF 4
REMARK  Name = ../refined-set-2016/3iae/3iae_pocket.pdb
REMARK  283 active torsions:
REMARK  status: ('A' for Active; 'I' for Inactive)
REMARK    1  A    between atoms: _1  and  _3
REMARK    2  A    between atoms: _3  and  _4
REMARK    3  A    between atoms: _3  and  _6
REMARK    4  A    between atoms: _6  and  _7
REMARK    5  A    between atoms: _10  and  _12
REMARK    6  A    between atoms: _12  and  _13
REMARK    7  A    between atoms: _12  and  _15
REMARK    8  A    between atoms: _15  and  _16
REMARK    9  A    between atoms: _21  and  _22
REMARK   10  A    between atoms: _24  and  _26
REMARK   11  A    between atoms: _26  and  _27
REMARK   12  A    between atoms: _26  and  _29
REMARK   13  A    between atoms: _29  and  _30
REMARK   14  A    between atoms: _34  and  _35
REMARK   15  A    between atoms: _40  and  _42
REMARK   16  A    between atoms: _42  and  _43
REMARK   17  A    between atoms: _42  and  _45
REMARK   18  A    between atoms: _45  and  _46
REMARK   19  A    between atoms: _49  and  _51
REMARK   20  A    between atoms: _51  and  _52
REMARK   21  A    between atoms: _54  and  _56
REMARK   22  A    between atoms: _56  and  _57
REMARK   23  A    between atoms: _60  and  _62
REMARK   24  A    between atoms: _62  and  _63
REMARK   25  A    between atoms: _62  and  _65
REMARK   26  A    between atoms: _65  and  _66
REMARK   27  A    between atoms: _69  and  _71
REMARK   28  A    between atoms: _71  and  _72
REMARK   29  A    between atoms: _71  and  _74
REMARK   30  A    between atoms: _74  and  _75
REMARK   31  A    between atoms: _78  and  _80
REMARK   32  A    between atoms: _80  and  _81
REMARK   33  A    between atoms: _80  and  _83
REMARK   34  A    between atoms: _83  and  _84
REMARK   35  A    between atoms: _89  and  _90
REMARK   36  A    between atoms: _92  and  _94
REMARK   37  A    between atoms: _94  and  _95
REMARK   38  A    between atoms: _94  and  _97
REMARK   39  A    between atoms: _97  and  _98
REMARK   40  A    between atoms: _101  and  _103
REMARK   41  A    between atoms: _103  and  _104
REMARK   42  A    between atoms: _103  and  _106
REMARK   43  A    between atoms: _106  and  _107
REMARK   44  A    between atoms: _117  and  _119
REMARK   45  A    between atoms: _119  and  _120
REMARK   46  A    between atoms: _119  and  _122
REMARK   47  A    between atoms: _122  and  _123
REMARK   48  A    between atoms: _126  and  _128
REMARK   49  A    between atoms: _128  and  _129
REMARK   50  A    between atoms: _128  and  _131
REMARK   51  A    between atoms: _131  and  _132
REMARK   52  A    between atoms: _137  and  _139
REMARK   53  A    between atoms: _139  and  _140
REMARK   54  A    between atoms: _142  and  _144
REMARK   55  A    between atoms: _144  and  _145
REMARK   56  A    between atoms: _144  and  _147
REMARK   57  A    between atoms: _147  and  _148
REMARK   58  A    between atoms: _153  and  _154
REMARK   59  A    between atoms: _156  and  _158
REMARK   60  A    between atoms: _158  and  _159
REMARK   61  A    between atoms: _158  and  _161
REMARK   62  A    between atoms: _161  and  _162
REMARK   63  A    between atoms: _165  and  _167
REMARK   64  A    between atoms: _167  and  _168
REMARK   65  A    between atoms: _170  and  _172
REMARK   66  A    between atoms: _172  and  _173
REMARK   67  A    between atoms: _172  and  _175
REMARK   68  A    between atoms: _175  and  _176
REMARK   69  A    between atoms: _178  and  _180
REMARK   70  A    between atoms: _180  and  _181
REMARK   71  A    between atoms: _180  and  _183
REMARK   72  A    between atoms: _183  and  _184
REMARK   73  A    between atoms: _184  and  _185
REMARK   74  A    between atoms: _187  and  _189
REMARK   75  A    between atoms: _189  and  _190
REMARK   76  A    between atoms: _192  and  _194
REMARK   77  A    between atoms: _194  and  _195
REMARK   78  A    between atoms: _194  and  _197
REMARK   79  A    between atoms: _200  and  _202
REMARK   80  A    between atoms: _202  and  _203
REMARK   81  A    between atoms: _202  and  _205
REMARK   82  A    between atoms: _205  and  _206
REMARK   83  A    between atoms: _209  and  _211
REMARK   84  A    between atoms: _211  and  _212
REMARK   85  A    between atoms: _214  and  _216
REMARK   86  A    between atoms: _216  and  _217
REMARK   87  A    between atoms: _216  and  _219
REMARK   88  A    between atoms: _219  and  _220
REMARK   89  A    between atoms: _220  and  _221
REMARK   90  A    between atoms: _221  and  CA_702
REMARK   91  A    between atoms: _223  and  _225
REMARK   92  A    between atoms: _225  and  _226
REMARK   93  A    between atoms: _228  and  _230
REMARK   94  A    between atoms: _230  and  _231
REMARK   95  A    between atoms: _230  and  _233
REMARK   96  A    between atoms: _233  and  _234
REMARK   97  A    between atoms: _236  and  _238
REMARK   98  A    between atoms: _238  and  _239
REMARK   99  A    between atoms: _238  and  _241
REMARK  100  A    between atoms: _244  and  _246
REMARK  101  A    between atoms: _246  and  _247
REMARK  102  A    between atoms: _249  and  _251
REMARK  103  A    between atoms: _251  and  _252
REMARK  104  A    between atoms: _251  and  _254
REMARK  105  A    between atoms: _254  and  _255
REMARK  106  A    between atoms: _260  and  _261
REMARK  107  A    between atoms: _263  and  _265
REMARK  108  A    between atoms: _265  and  _266
REMARK  109  A    between atoms: _265  and  _268
REMARK  110  A    between atoms: _268  and  _269
REMARK  111  A    between atoms: _272  and  _274
REMARK  112  A    between atoms: _274  and  _275
REMARK  113  A    between atoms: _274  and  _277
REMARK  114  A    between atoms: _275  and  _276
REMARK  115  A    between atoms: _275  and  _281
REMARK  116  A    between atoms: _276  and  CA_702
REMARK  117  A    between atoms: _277  and  _278
REMARK  118  A    between atoms: _278  and  _279
REMARK  119  A    between atoms: _281  and  _283
REMARK  120  A    between atoms: _283  and  _284
REMARK  121  A    between atoms: _283  and  _286
REMARK  122  A    between atoms: _286  and  _287
REMARK  123  A    between atoms: _292  and  _294
REMARK  124  A    between atoms: _294  and  _295
REMARK  125  A    between atoms: _294  and  _297
REMARK  126  A    between atoms: _297  and  _298
REMARK  127  A    between atoms: _303  and  _305
REMARK  128  A    between atoms: _305  and  _306
REMARK  129  A    between atoms: _305  and  _308
REMARK  130  A    between atoms: _308  and  _309
REMARK  131  A    between atoms: _309  and  _310
REMARK  132  A    between atoms: _315  and  _317
REMARK  133  A    between atoms: _317  and  _318
REMARK  134  A    between atoms: _317  and  _320
REMARK  135  A    between atoms: _320  and  _321
REMARK  136  A    between atoms: _323  and  _325
REMARK  137  A    between atoms: _325  and  _326
REMARK  138  A    between atoms: _325  and  _328
REMARK  139  A    between atoms: _328  and  _329
REMARK  140  A    between atoms: _339  and  _341
REMARK  141  A    between atoms: _341  and  _342
REMARK  142  A    between atoms: _344  and  _346
REMARK  143  A    between atoms: _346  and  _347
REMARK  144  A    between atoms: _350  and  _352
REMARK  145  A    between atoms: _352  and  _353
REMARK  146  A    between atoms: _352  and  _355
REMARK  147  A    between atoms: _355  and  _356
REMARK  148  A    between atoms: _359  and  _361
REMARK  149  A    between atoms: _361  and  _362
REMARK  150  A    between atoms: _361  and  _364
REMARK  151  A    between atoms: _364  and  _365
REMARK  152  A    between atoms: _368  and  _370
REMARK  153  A    between atoms: _370  and  _371
REMARK  154  A    between atoms: _370  and  _373
REMARK  155  A    between atoms: _373  and  _374
REMARK  156  A    between atoms: _379  and  _381
REMARK  157  A    between atoms: _381  and  _382
REMARK  158  A    between atoms: _381  and  _384
REMARK  159  A    between atoms: _384  and  _385
REMARK  160  A    between atoms: _391  and  _393
REMARK  161  A    between atoms: _393  and  _394
REMARK  162  A    between atoms: _393  and  _396
REMARK  163  A    between atoms: _396  and  _397
REMARK  164  A    between atoms: _397  and  _398
REMARK  165  A    between atoms: _403  and  _405
REMARK  166  A    between atoms: _405  and  _406
REMARK  167  A    between atoms: _408  and  _410
REMARK  168  A    between atoms: _410  and  _411
REMARK  169  A    between atoms: _410  and  _413
REMARK  170  A    between atoms: _413  and  _414
REMARK  171  A    between atoms: _417  and  _419
REMARK  172  A    between atoms: _419  and  _420
REMARK  173  A    between atoms: _419  and  _422
REMARK  174  A    between atoms: _422  and  _423
REMARK  175  A    between atoms: _426  and  _428
REMARK  176  A    between atoms: _428  and  _429
REMARK  177  A    between atoms: _428  and  _431
REMARK  178  A    between atoms: _431  and  _432
REMARK  179  A    between atoms: _437  and  _438
REMARK  180  A    between atoms: _440  and  _442
REMARK  181  A    between atoms: _442  and  _443
REMARK  182  A    between atoms: _442  and  _445
REMARK  183  A    between atoms: _448  and  _450
REMARK  184  A    between atoms: _450  and  _451
REMARK  185  A    between atoms: _454  and  _456
REMARK  186  A    between atoms: _456  and  _457
REMARK  187  A    between atoms: _456  and  _459
REMARK  188  A    between atoms: _459  and  _460
REMARK  189  A    between atoms: _463  and  _465
REMARK  190  A    between atoms: _465  and  _466
REMARK  191  A    between atoms: _465  and  _468
REMARK  192  A    between atoms: _468  and  _469
REMARK  193  A    between atoms: _469  and  _470
REMARK  194  A    between atoms: _473  and  _475
REMARK  195  A    between atoms: _475  and  _476
REMARK  196  A    between atoms: _475  and  _478
REMARK  197  A    between atoms: _478  and  _479
REMARK  198  A    between atoms: _479  and  _480
REMARK  199  A    between atoms: _483  and  _485
REMARK  200  A    between atoms: _485  and  _486
REMARK  201  A    between atoms: _485  and  _488
REMARK  202  A    between atoms: _488  and  _489
REMARK  203  A    between atoms: _492  and  _494
REMARK  204  A    between atoms: _494  and  _495
REMARK  205  A    between atoms: _494  and  _497
REMARK  206  A    between atoms: _497  and  _498
REMARK  207  A    between atoms: _503  and  _505
REMARK  208  A    between atoms: _505  and  _506
REMARK  209  A    between atoms: _508  and  _510
REMARK  210  A    between atoms: _510  and  _511
REMARK  211  A    between atoms: _510  and  _513
REMARK  212  A    between atoms: _513  and  _514
REMARK  213  A    between atoms: _516  and  _518
REMARK  214  A    between atoms: _518  and  _519
REMARK  215  A    between atoms: _518  and  _521
REMARK  216  A    between atoms: _521  and  _522
REMARK  217  A    between atoms: _527  and  _529
REMARK  218  A    between atoms: _529  and  _530
REMARK  219  A    between atoms: _529  and  _532
REMARK  220  A    between atoms: _532  and  _533
REMARK  221  A    between atoms: _536  and  _538
REMARK  222  A    between atoms: _538  and  _539
REMARK  223  A    between atoms: _538  and  _541
REMARK  224  A    between atoms: _541  and  _542
REMARK  225  A    between atoms: _545  and  _547
REMARK  226  A    between atoms: _547  and  _548
REMARK  227  A    between atoms: _547  and  _550
REMARK  228  A    between atoms: _550  and  _551
REMARK  229  A    between atoms: _551  and  _552
REMARK  230  A    between atoms: _552  and  _553
REMARK  231  A    between atoms: _562  and  _564
REMARK  232  A    between atoms: _564  and  _565
REMARK  233  A    between atoms: _564  and  _567
REMARK  234  A    between atoms: _567  and  _568
REMARK  235  A    between atoms: _573  and  _575
REMARK  236  A    between atoms: _575  and  _576
REMARK  237  A    between atoms: _575  and  _578
REMARK  238  A    between atoms: _578  and  _579
REMARK  239  A    between atoms: _579  and  _580
REMARK  240  A    between atoms: _583  and  _585
REMARK  241  A    between atoms: _585  and  _586
REMARK  242  A    between atoms: _589  and  _591
REMARK  243  A    between atoms: _591  and  _592
REMARK  244  A    between atoms: _591  and  _594
REMARK  245  A    between atoms: _597  and  _599
REMARK  246  A    between atoms: _599  and  _600
REMARK  247  A    between atoms: _599  and  _602
REMARK  248  A    between atoms: _602  and  _603
REMARK  249  A    between atoms: _606  and  _608
REMARK  250  A    between atoms: _608  and  _609
REMARK  251  A    between atoms: _612  and  _614
REMARK  252  A    between atoms: _614  and  _615
REMARK  253  A    between atoms: _617  and  _619
REMARK  254  A    between atoms: _619  and  _620
REMARK  255  A    between atoms: _622  and  _624
REMARK  256  A    between atoms: _624  and  _625
REMARK  257  A    between atoms: _627  and  _629
REMARK  258  A    between atoms: _629  and  _630
REMARK  259  A    between atoms: _629  and  _632
REMARK  260  A    between atoms: _632  and  _633
REMARK  261  A    between atoms: _639  and  _641
REMARK  262  A    between atoms: _641  and  _642
REMARK  263  A    between atoms: _641  and  _644
REMARK  264  A    between atoms: _644  and  _645
REMARK  265  A    between atoms: _648  and  _650
REMARK  266  A    between atoms: _650  and  _651
REMARK  267  A    between atoms: _650  and  _653
REMARK  268  A    between atoms: _653  and  _654
REMARK  269  A    between atoms: _659  and  _661
REMARK  270  A    between atoms: _661  and  _662
REMARK  271  A    between atoms: _665  and  _667
REMARK  272  A    between atoms: _667  and  _668
REMARK  273  A    between atoms: _667  and  _670
REMARK  274  A    between atoms: _670  and  _671
REMARK  275  A    between atoms: _674  and  _676
REMARK  276  A    between atoms: _676  and  _677
REMARK  277  A    between atoms: _676  and  _679
REMARK  278  A    between atoms: _679  and  _680
REMARK  279  A    between atoms: _680  and  _681
REMARK  280  A    between atoms: _686  and  _688
REMARK  281  A    between atoms: _688  and  _689
REMARK  282  A    between atoms: _688  and  _691
REMARK  283  A    between atoms: _691  and  _692
REMARK                            x       y       z     vdW  Elec       q    Type
REMARK                         _______ _______ _______ _____ _____    ______ ____
ROOT
ATOM      1  N   PRO A   1     -15.972 -49.785 -27.516  0.00  0.00    -0.212 NA
ATOM      2  CA  PRO A   1     -14.928 -50.433 -26.707  0.00  0.00    +0.137 C 
ATOM      3  CB  PRO A   1     -13.866 -49.339 -26.557  0.00  0.00    +0.027 C 
ATOM      4  CG  PRO A   1     -14.059 -48.450 -27.715  0.00  0.00    +0.021 C 
ATOM      5  CD  PRO A   1     -15.521 -48.486 -28.052  0.00  0.00    +0.089 C 
ENDROOT
BRANCH   2   6
ATOM      6  C   PRO A   1     -15.398 -50.887 -25.322  0.00  0.00    +0.224 C 
ATOM      7  O   PRO A   1     -14.939 -51.918 -24.825  0.00  0.00    -0.287 OA
ENDBRANCH   2   6
TORSDOF 1
REMARK  Name = ../refined-set-2016/3iae/3iae_pocket.pdb
REMARK  283 active torsions:
REMARK  status: ('A' for Active; 'I' for Inactive)
REMARK    1  A    between atoms: _1  and  _3
REMARK    2  A    between atoms: _3  and  _4
REMARK    3  A    between atoms: _3  and  _6
REMARK    4  A    between atoms: _6  and  _7
REMARK    5  A    between atoms: _10  and  _12
REMARK    6  A    between atoms: _12  and  _13
REMARK    7  A    between atoms: _12  and  _15
REMARK    8  A    between atoms: _15  and  _16
REMARK    9  A    between atoms: _21  and  _22
REMARK   10  A    between atoms: _24  and  _26
REMARK   11  A    between atoms: _26  and  _27
REMARK   12  A    between atoms: _26  and  _29
REMARK   13  A    between atoms: _29  and  _30
REMARK   14  A    between atoms: _34  and  _35
REMARK   15  A    between atoms: _40  and  _42
REMARK   16  A    between atoms: _42  and  _43
REMARK   17  A    between atoms: _42  and  _45
REMARK   18  A    between atoms: _45  and  _46
REMARK   19  A    between atoms: _49  and  _51
REMARK   20  A    between atoms: _51  and  _52
REMARK   21  A    between atoms: _54  and  _56
REMARK   22  A    between atoms: _56  and  _57
REMARK   23  A    between atoms: _60  and  _62
REMARK   24  A    between atoms: _62  and  _63
REMARK   25  A    between atoms: _62  and  _65
REMARK   26  A    between atoms: _65  and  _66
REMARK   27  A    between atoms: _69  and  _71
REMARK   28  A    between atoms: _71  and  _72
REMARK   29  A    between atoms: _71  and  _74
REMARK   30  A    between atoms: _74  and  _75
REMARK   31  A    between atoms: _78  and  _80
REMARK   32  A    between atoms: _80  and  _81
REMARK   33  A    between atoms: _80  and  _83
REMARK   34  A    between atoms: _83  and  _84
REMARK   35  A    between atoms: _89  and  _90
REMARK   36  A    between atoms: _92  and  _94
REMARK   37  A    between atoms: _94  and  _95
REMARK   38  A    between atoms: _94  and  _97
REMARK   39  A    between atoms: _97  and  _98
REMARK   40  A    between atoms: _101  and  _103
REMARK   41  A    between atoms: _103  and  _104
REMARK   42  A    between atoms: _103  and  _106
REMARK   43  A    between atoms: _106  and  _107
REMARK   44  A    between atoms: _117  and  _119
REMARK   45  A    between atoms: _119  and  _120
REMARK   46  A    between atoms: _119  and  _122
REMARK   47  A    between atoms: _122  and  _123
REMARK   48  A    between atoms: _126  and  _128
REMARK   49  A    between atoms: _128  and  _129
REMARK   50  A    between atoms: _128  and  _131
REMARK   51  A    between atoms: _131  and  _132
REMARK   52  A    between atoms: _137  and  _139
REMARK   53  A    between atoms: _139  and  _140
REMARK   54  A    between atoms: _142  and  _144
REMARK   55  A    between atoms: _144  and  _145
REMARK   56  A    between atoms: _144  and  _147
REMARK   57  A    between atoms: _147  and  _148
REMARK   58  A    between atoms: _153  and  _154
REMARK   59  A    between atoms: _156  and  _158
REMARK   60  A    between atoms: _158  and  _159
REMARK   61  A    between atoms: _158  and  _161
REMARK   62  A    between atoms: _161  and  _162
REMARK   63  A    between atoms: _165  and  _167
REMARK   64  A    between atoms: _167  and  _168
REMARK   65  A    between atoms: _170  and  _172
REMARK   66  A    between atoms: _172  and  _173
REMARK   67  A    between atoms: _172  and  _175
REMARK   68  A    between atoms: _175  and  _176
REMARK   69  A    between atoms: _178  and  _180
REMARK   70  A    between atoms: _180  and  _181
REMARK   71  A    between atoms: _180  and  _183
REMARK   72  A    between atoms: _183  and  _184
REMARK   73  A    between atoms: _184  and  _185
REMARK   74  A    between atoms: _187  and  _189
REMARK   75  A    between atoms: _189  and  _190
REMARK   76  A    between atoms: _192  and  _194
REMARK   77  A    between atoms: _194  and  _195
REMARK   78  A    between atoms: _194  and  _197
REMARK   79  A    between atoms: _200  and  _202
REMARK   80  A    between atoms: _202  and  _203
REMARK   81  A    between atoms: _202  and  _205
REMARK   82  A    between atoms: _205  and  _206
REMARK   83  A    between atoms: _209  and  _211
REMARK   84  A    between atoms: _211  and  _212
REMARK   85  A    between atoms: _214  and  _216
REMARK   86  A    between atoms: _216  and  _217
REMARK   87  A    between atoms: _216  and  _219
REMARK   88  A    between atoms: _219  and  _220
REMARK   89  A    between atoms: _220  and  _221
REMARK   90  A    between atoms: _221  and  CA_702
REMARK   91  A    between atoms: _223  and  _225
REMARK   92  A    between atoms: _225  and  _226
REMARK   93  A    between atoms: _228  and  _230
REMARK   94  A    between atoms: _230  and  _231
REMARK   95  A    between atoms: _230  and  _233
REMARK   96  A    between atoms: _233  and  _234
REMARK   97  A    between atoms: _236  and  _238
REMARK   98  A    between atoms: _238  and  _239
REMARK   99  A    between atoms: _238  and  _241
REMARK  100  A    between atoms: _244  and  _246
REMARK  101  A    between atoms: _246  and  _247
REMARK  102  A    between atoms: _249  and  _251
REMARK  103  A    between atoms: _251  and  _252
REMARK  104  A    between atoms: _251  and  _254
REMARK  105  A    between atoms: _254  and  _255
REMARK  106  A    between atoms: _260  and  _261
REMARK  107  A    between atoms: _263  and  _265
REMARK  108  A    between atoms: _265  and  _266
REMARK  109  A    between atoms: _265  and  _268
REMARK  110  A    between atoms: _268  and  _269
REMARK  111  A    between atoms: _272  and  _274
REMARK  112  A    between atoms: _274  and  _275
REMARK  113  A    between atoms: _274  and  _277
REMARK  114  A    between atoms: _275  and  _276
REMARK  115  A    between atoms: _275  and  _281
REMARK  116  A    between atoms: _276  and  CA_702
REMARK  117  A    between atoms: _277  and  _278
REMARK  118  A    between atoms: _278  and  _279
REMARK  119  A    between atoms: _281  and  _283
REMARK  120  A    between atoms: _283  and  _284
REMARK  121  A    between atoms: _283  and  _286
REMARK  122  A    between atoms: _286  and  _287
REMARK  123  A    between atoms: _292  and  _294
REMARK  124  A    between atoms: _294  and  _295
REMARK  125  A    between atoms: _294  and  _297
REMARK  126  A    between atoms: _297  and  _298
REMARK  127  A    between atoms: _303  and  _305
REMARK  128  A    between atoms: _305  and  _306
REMARK  129  A    between atoms: _305  and  _308
REMARK  130  A    between atoms: _308  and  _309
REMARK  131  A    between atoms: _309  and  _310
REMARK  132  A    between atoms: _315  and  _317
REMARK  133  A    between atoms: _317  and  _318
REMARK  134  A    between atoms: _317  and  _320
REMARK  135  A    between atoms: _320  and  _321
REMARK  136  A    between atoms: _323  and  _325
REMARK  137  A    between atoms: _325  and  _326
REMARK  138  A    between atoms: _325  and  _328
REMARK  139  A    between atoms: _328  and  _329
REMARK  140  A    between atoms: _339  and  _341
REMARK  141  A    between atoms: _341  and  _342
REMARK  142  A    between atoms: _344  and  _346
REMARK  143  A    between atoms: _346  and  _347
REMARK  144  A    between atoms: _350  and  _352
REMARK  145  A    between atoms: _352  and  _353
REMARK  146  A    between atoms: _352  and  _355
REMARK  147  A    between atoms: _355  and  _356
REMARK  148  A    between atoms: _359  and  _361
REMARK  149  A    between atoms: _361  and  _362
REMARK  150  A    between atoms: _361  and  _364
REMARK  151  A    between atoms: _364  and  _365
REMARK  152  A    between atoms: _368  and  _370
REMARK  153  A    between atoms: _370  and  _371
REMARK  154  A    between atoms: _370  and  _373
REMARK  155  A    between atoms: _373  and  _374
REMARK  156  A    between atoms: _379  and  _381
REMARK  157  A    between atoms: _381  and  _382
REMARK  158  A    between atoms: _381  and  _384
REMARK  159  A    between atoms: _384  and  _385
REMARK  160  A    between atoms: _391  and  _393
REMARK  161  A    between atoms: _393  and  _394
REMARK  162  A    between atoms: _393  and  _396
REMARK  163  A    between atoms: _396  and  _397
REMARK  164  A    between atoms: _397  and  _398
REMARK  165  A    between atoms: _403  and  _405
REMARK  166  A    between atoms: _405  and  _406
REMARK  167  A    between atoms: _408  and  _410
REMARK  168  A    between atoms: _410  and  _411
REMARK  169  A    between atoms: _410  and  _413
REMARK  170  A    between atoms: _413  and  _414
REMARK  171  A    between atoms: _417  and  _419
REMARK  172  A    between atoms: _419  and  _420
REMARK  173  A    between atoms: _419  and  _422
REMARK  174  A    between atoms: _422  and  _423
REMARK  175  A    between atoms: _426  and  _428
REMARK  176  A    between atoms: _428  and  _429
REMARK  177  A    between atoms: _428  and  _431
REMARK  178  A    between atoms: _431  and  _432
REMARK  179  A    between atoms: _437  and  _438
REMARK  180  A    between atoms: _440  and  _442
REMARK  181  A    between atoms: _442  and  _443
REMARK  182  A    between atoms: _442  and  _445
REMARK  183  A    between atoms: _448  and  _450
REMARK  184  A    between atoms: _450  and  _451
REMARK  185  A    between atoms: _454  and  _456
REMARK  186  A    between atoms: _456  and  _457
REMARK  187  A    between atoms: _456  and  _459
REMARK  188  A    between atoms: _459  and  _460
REMARK  189  A    between atoms: _463  and  _465
REMARK  190  A    between atoms: _465  and  _466
REMARK  191  A    between atoms: _465  and  _468
REMARK  192  A    between atoms: _468  and  _469
REMARK  193  A    between atoms: _469  and  _470
REMARK  194  A    between atoms: _473  and  _475
REMARK  195  A    between atoms: _475  and  _476
REMARK  196  A    between atoms: _475  and  _478
REMARK  197  A    between atoms: _478  and  _479
REMARK  198  A    between atoms: _479  and  _480
REMARK  199  A    between atoms: _483  and  _485
REMARK  200  A    between atoms: _485  and  _486
REMARK  201  A    between atoms: _485  and  _488
REMARK  202  A    between atoms: _488  and  _489
REMARK  203  A    between atoms: _492  and  _494
REMARK  204  A    between atoms: _494  and  _495
REMARK  205  A    between atoms: _494  and  _497
REMARK  206  A    between atoms: _497  and  _498
REMARK  207  A    between atoms: _503  and  _505
REMARK  208  A    between atoms: _505  and  _506
REMARK  209  A    between atoms: _508  and  _510
REMARK  210  A    between atoms: _510  and  _511
REMARK  211  A    between atoms: _510  and  _513
REMARK  212  A    between atoms: _513  and  _514
REMARK  213  A    between atoms: _516  and  _518
REMARK  214  A    between atoms: _518  and  _519
REMARK  215  A    between atoms: _518  and  _521
REMARK  216  A    between atoms: _521  and  _522
REMARK  217  A    between atoms: _527  and  _529
REMARK  218  A    between atoms: _529  and  _530
REMARK  219  A    between atoms: _529  and  _532
REMARK  220  A    between atoms: _532  and  _533
REMARK  221  A    between atoms: _536  and  _538
REMARK  222  A    between atoms: _538  and  _539
REMARK  223  A    between atoms: _538  and  _541
REMARK  224  A    between atoms: _541  and  _542
REMARK  225  A    between atoms: _545  and  _547
REMARK  226  A    between atoms: _547  and  _548
REMARK  227  A    between atoms: _547  and  _550
REMARK  228  A    between atoms: _550  and  _551
REMARK  229  A    between atoms: _551  and  _552
REMARK  230  A    between atoms: _552  and  _553
REMARK  231  A    between atoms: _562  and  _564
REMARK  232  A    between atoms: _564  and  _565
REMARK  233  A    between atoms: _564  and  _567
REMARK  234  A    between atoms: _567  and  _568
REMARK  235  A    between atoms: _573  and  _575
REMARK  236  A    between atoms: _575  and  _576
REMARK  237  A    between atoms: _575  and  _578
REMARK  238  A    between atoms: _578  and  _579
REMARK  239  A    between atoms: _579  and  _580
REMARK  240  A    between atoms: _583  and  _585
REMARK  241  A    between atoms: _585  and  _586
REMARK  242  A    between atoms: _589  and  _591
REMARK  243  A    between atoms: _591  and  _592
REMARK  244  A    between atoms: _591  and  _594
REMARK  245  A    between atoms: _597  and  _599
REMARK  246  A    between atoms: _599  and  _600
REMARK  247  A    between atoms: _599  and  _602
REMARK  248  A    between atoms: _602  and  _603
REMARK  249  A    between atoms: _606  and  _608
REMARK  250  A    between atoms: _608  and  _609
REMARK  251  A    between atoms: _612  and  _614
REMARK  252  A    between atoms: _614  and  _615
REMARK  253  A    between atoms: _617  and  _619
REMARK  254  A    between atoms: _619  and  _620
REMARK  255  A    between atoms: _622  and  _624
REMARK  256  A    between atoms: _624  and  _625
REMARK  257  A    between atoms: _627  and  _629
REMARK  258  A    between atoms: _629  and  _630
REMARK  259  A    between atoms: _629  and  _632
REMARK  260  A    between atoms: _632  and  _633
REMARK  261  A    between atoms: _639  and  _641
REMARK  262  A    between atoms: _641  and  _642
REMARK  263  A    between atoms: _641  and  _644
REMARK  264  A    between atoms: _644  and  _645
REMARK  265  A    between atoms: _648  and  _650
REMARK  266  A    between atoms: _650  and  _651
REMARK  267  A    between atoms: _650  and  _653
REMARK  268  A    between atoms: _653  and  _654
REMARK  269  A    between atoms: _659  and  _661
REMARK  270  A    between atoms: _661  and  _662
REMARK  271  A    between atoms: _665  and  _667
REMARK  272  A    between atoms: _667  and  _668
REMARK  273  A    between atoms: _667  and  _670
REMARK  274  A    between atoms: _670  and  _671
REMARK  275  A    between atoms: _674  and  _676
REMARK  276  A    between atoms: _676  and  _677
REMARK  277  A    between atoms: _676  and  _679
REMARK  278  A    between atoms: _679  and  _680
REMARK  279  A    between atoms: _680  and  _681
REMARK  280  A    between atoms: _686  and  _688
REMARK  281  A    between atoms: _688  and  _689
REMARK  282  A    between atoms: _688  and  _691
REMARK  283  A    between atoms: _691  and  _692
REMARK                            x       y       z     vdW  Elec       q    Type
REMARK                         _______ _______ _______ _____ _____    ______ ____
ROOT
ATOM      1  CA  TYR A   6      -6.657 -51.410 -21.348  0.00  0.00    +0.153 C 
ENDROOT
BRANCH   1   3
ATOM      2  C   THR A   5      -7.867 -51.368 -23.462  0.00  0.00    +0.243 C 
ATOM      3  N   TYR A   6      -6.748 -51.113 -22.782  0.00  0.00    -0.297 N 
ATOM      4  H   TYR A   6      -5.931 -50.699 -23.274  0.00  0.00    +0.150 HD
ATOM      5  O   THR A   5      -8.885 -51.813 -22.929  0.00  0.00    -0.273 OA
BRANCH   2   6
ATOM      6  CA  THR A   5      -7.864 -51.063 -24.964  0.00  0.00    +0.176 C 
BRANCH   6   9
ATOM      7  C   LEU A   4      -7.950 -48.617 -24.698  0.00  0.00    +0.241 C 
ATOM      8  O   LEU A   4      -8.878 -48.642 -23.888  0.00  0.00    -0.273 OA
ATOM      9  N   THR A   5      -7.424 -49.705 -25.261  0.00  0.00    -0.295 N 
ATOM     10  H   THR A   5      -6.656 -49.578 -25.951  0.00  0.00    +0.150 HD
BRANCH   7  11
ATOM     11  CA  LEU A   4      -7.310 -47.299 -25.110  0.00  0.00    +0.149 C 
BRANCH  11  14
ATOM     12  C   ALA A   3      -5.094 -47.940 -24.299  0.00  0.00    +0.241 C 
ATOM     13  O   ALA A   3      -5.493 -48.084 -23.144  0.00  0.00    -0.273 OA
ATOM     14  N   LEU A   4      -5.870 -47.493 -25.288  0.00  0.00    -0.297 N 
ATOM     15  H   LEU A   4      -5.440 -47.277 -26.210  0.00  0.00    +0.150 HD
BRANCH  12  16
ATOM     16  CA  ALA A   3      -3.654 -48.289 -24.656  0.00  0.00    +0.149 C 
ATOM     17  CB  ALA A   3      -2.972 -47.145 -25.375  0.00  0.00    +0.031 C 
BRANCH  16  20
ATOM     18  C   GLY A   2      -2.932 -50.581 -25.020  0.00  0.00    +0.243 C 
ATOM     19  O   GLY A   2      -2.328 -50.604 -23.947  0.00  0.00    -0.273 OA
ATOM     20  N   ALA A   3      -3.593 -49.512 -25.451  0.00  0.00    -0.297 N 
ATOM     21  H   ALA A   3      -4.076 -49.547 -26.372  0.00  0.00    +0.150 HD
BRANCH  18  22
ATOM     22  CA  GLY A   2      -2.942 -51.800 -25.922  0.00  0.00    +0.176 C 
BRANCH  22  25
ATOM     23  C   ASP A   1      -2.945 -53.596 -24.267  0.00  0.00    +0.239 C 
ATOM     24  O   ASP A   1      -4.113 -53.365 -23.946  0.00  0.00    -0.274 OA
ATOM     25  N   GLY A   2      -2.326 -52.939 -25.246  0.00  0.00    -0.296 N 
ATOM     26  H   GLY A   2      -1.376 -53.246 -25.538  0.00  0.00    +0.150 HD
BRANCH  23  27
ATOM     27  CA  ASP A   1      -2.144 -54.678 -23.535  0.00  0.00    +0.156 C 
BRANCH  27  28
ATOM     28  N   ASP A   1      -3.088 -55.487 -22.772  0.00  0.00    -0.238 NA
ATOM     29  H   ASP A   1      -3.896 -55.906 -23.274  0.00  0.00    +0.142 HD
ENDBRANCH  27  28
BRANCH  27  30
ATOM     30  CB  ASP A   1      -1.361 -55.558 -24.518  0.00  0.00    +0.140 C 
BRANCH  30  31
ATOM     31  CG  ASP A   1       0.006 -54.979 -24.887  0.00  0.00    +0.367 C 
ATOM     32  OD2 ASP A   1       0.199 -53.745 -24.840  0.00  0.00    -0.246 OA
ATOM     33  OD1 ASP A   1       0.898 -55.773 -25.243  0.00  0.00    -0.246 OA
ENDBRANCH  30  31
ENDBRANCH  27  30
ENDBRANCH  23  27
ENDBRANCH  22  25
ENDBRANCH  18  22
ENDBRANCH  16  20
ENDBRANCH  12  16
ENDBRANCH  11  14
BRANCH  11  34
ATOM     34  CB  LEU A   4      -7.966 -46.790 -26.398  0.00  0.00    +0.029 C 
BRANCH  34  35
ATOM     35  CG  LEU A   4      -7.605 -45.398 -26.922  0.00  0.00    +0.002 C 
ATOM     36  CD2 LEU A   4      -8.023 -44.310 -25.943  0.00  0.00    +0.000 C 
ATOM     37  CD1 LEU A   4      -8.244 -45.175 -28.281  0.00  0.00    +0.000 C 
ENDBRANCH  34  35
ENDBRANCH  11  34
ENDBRANCH   7  11
ENDBRANCH   6   9
BRANCH   6  38
ATOM     38  CB  THR A   5      -7.009 -52.098 -25.735  0.00  0.00    +0.137 C 
ATOM     39  CG2 THR A   5      -7.432 -53.526 -25.406  0.00  0.00    +0.034 C 
BRANCH  38  40
ATOM     40  OG1 THR A   5      -7.155 -51.877 -27.144  0.00  0.00    -0.382 OA
ATOM     41  HG1 THR A   5      -6.850 -50.962 -27.367  0.00  0.00    +0.210 HD
ENDBRANCH  38  40
ENDBRANCH   6  38
ENDBRANCH   2   6
ENDBRANCH   1   3
BRANCH   1  42
ATOM     42  C   TYR A   6      -7.368 -50.380 -20.473  0.00  0.00    +0.241 C 
ATOM     43  O   TYR A   6      -7.918 -50.724 -19.426  0.00  0.00    -0.273 OA
ATOM     44  N   LEU A   7      -7.354 -49.122 -20.913  0.00  0.00    -0.297 N 
ATOM     45  H   LEU A   7      -6.837 -48.904 -21.789  0.00  0.00    +0.150 HD
BRANCH  44  46
ATOM     46  CA  LEU A   7      -8.039 -48.035 -20.209  0.00  0.00    +0.149 C 
BRANCH  46  47
ATOM     47  C   LEU A   7      -9.557 -48.233 -20.196  0.00  0.00    +0.241 C 
ATOM     48  O   LEU A   7     -10.222 -47.888 -19.218  0.00  0.00    -0.273 OA
ATOM     49  N   TRP A   8     -10.093 -48.791 -21.281  0.00  0.00    -0.297 N 
ATOM     50  H   TRP A   8      -9.487 -48.975 -22.106  0.00  0.00    +0.150 HD
BRANCH  49  51
ATOM     51  CA  TRP A   8     -11.511 -49.153 -21.345  0.00  0.00    +0.153 C 
BRANCH  51  52
ATOM     52  C   TRP A   8     -11.808 -50.413 -20.536  0.00  0.00    +0.241 C 
ATOM     53  O   TRP A   8     -12.843 -50.499 -19.872  0.00  0.00    -0.273 OA
ATOM     54  N   LEU A   9     -10.898 -51.384 -20.599  0.00  0.00    -0.298 N 
ATOM     55  H   LEU A   9     -10.039 -51.228 -21.164  0.00  0.00    +0.150 HD
BRANCH  54  56
ATOM     56  CA  LEU A   9     -11.061 -52.663 -19.904  0.00  0.00    +0.137 C 
BRANCH  56  57
ATOM     57  C   LEU A   9     -11.029 -52.516 -18.381  0.00  0.00    +0.227 C 
ATOM     58  O   LEU A   9     -11.720 -53.246 -17.672  0.00  0.00    -0.286 OA
ENDBRANCH  56  57
BRANCH  56  59
ATOM     59  CB  LEU A   9     -10.002 -53.672 -20.368  0.00  0.00    +0.028 C 
BRANCH  59  60
ATOM     60  CG  LEU A   9     -10.139 -55.131 -19.910  0.00  0.00    +0.002 C 
ATOM     61  CD2 LEU A   9      -8.870 -55.909 -20.214  0.00  0.00    +0.000 C 
ATOM     62  CD1 LEU A   9     -11.352 -55.811 -20.544  0.00  0.00    +0.000 C 
ENDBRANCH  59  60
ENDBRANCH  56  59
ENDBRANCH  54  56
ENDBRANCH  51  52
BRANCH  51  63
ATOM     63  CB  TRP A   8     -11.967 -49.353 -22.793  0.00  0.00    +0.057 C 
BRANCH  63  64
ATOM     64  CG  TRP A   8     -12.352 -48.089 -23.504  0.00  0.00    -0.002 A 
ATOM     65  CD2 TRP A   8     -13.464 -47.235 -23.201  0.00  0.00    +0.013 A 
ATOM     66  CE3 TRP A   8     -14.479 -47.264 -22.234  0.00  0.00    +0.001 A 
ATOM     67  CZ3 TRP A   8     -15.424 -46.240 -22.227  0.00  0.00    +0.000 A 
ATOM     68  CH2 TRP A   8     -15.370 -45.195 -23.168  0.00  0.00    +0.001 A 
ATOM     69  CZ2 TRP A   8     -14.390 -45.146 -24.125  0.00  0.00    +0.017 A 
ATOM     70  CE2 TRP A   8     -13.439 -46.173 -24.132  0.00  0.00    +0.056 A 
ATOM     71  NE1 TRP A   8     -12.365 -46.376 -24.958  0.00  0.00    -0.352 N 
ATOM     72  HE1 TRP A   8     -12.085 -45.760 -25.748  0.00  0.00    +0.166 HD
ATOM     73  CD1 TRP A   8     -11.718 -47.526 -24.574  0.00  0.00    +0.068 A 
ENDBRANCH  63  64
ENDBRANCH  51  63
ENDBRANCH  49  51
ENDBRANCH  46  47
BRANCH  46  74
ATOM     74  CB  LEU A   7      -7.679 -46.672 -20.817  0.00  0.00    +0.029 C 
BRANCH  74  75
ATOM     75  CG  LEU A   7      -6.225 -46.186 -20.707  0.00  0.00    +0.002 C 
ATOM     76  CD2 LEU A   7      -5.851 -45.778 -19.286  0.00  0.00    +0.000 C 
ATOM     77  CD1 LEU A   7      -5.965 -45.045 -21.679  0.00  0.00    +0.000 C 
ENDBRANCH  74  75
ENDBRANCH  46  74
ENDBRANCH  44  46
ENDBRANCH   1  42
BRANCH   1  78
ATOM     78  CB  TYR A   6      -5.205 -51.655 -20.893  0.00  0.00    +0.055 C 
BRANCH  78  79
ATOM     79  CG  TYR A   6      -4.419 -50.437 -20.437  0.00  0.00    -0.020 A 
ATOM     80  CD2 TYR A   6      -4.573 -49.918 -19.147  0.00  0.00    -0.001 A 
ATOM     81  CE2 TYR A   6      -3.844 -48.811 -18.723  0.00  0.00    +0.036 A 
ATOM     82  CZ  TYR A   6      -2.935 -48.219 -19.589  0.00  0.00    +0.134 A 
ATOM     83  CE1 TYR A   6      -2.754 -48.723 -20.867  0.00  0.00    +0.036 A 
ATOM     84  CD1 TYR A   6      -3.493 -49.830 -21.280  0.00  0.00    -0.001 A 
BRANCH  82  85
ATOM     85  OH  TYR A   6      -2.205 -47.125 -19.182  0.00  0.00    -0.506 OA
ATOM     86  HH  TYR A   6      -2.451 -46.893 -18.251  0.00  0.00    +0.292 HD
ENDBRANCH  82  85
ENDBRANCH  78  79
ENDBRANCH   1  78
TORSDOF 33
REMARK  Name = ../refined-set-2016/3iae/3iae_pocket.pdb
REMARK  283 active torsions:
REMARK  status: ('A' for Active; 'I' for Inactive)
REMARK    1  A    between atoms: _1  and  _3
REMARK    2  A    between atoms: _3  and  _4
REMARK    3  A    between atoms: _3  and  _6
REMARK    4  A    between atoms: _6  and  _7
REMARK    5  A    between atoms: _10  and  _12
REMARK    6  A    between atoms: _12  and  _13
REMARK    7  A    between atoms: _12  and  _15
REMARK    8  A    between atoms: _15  and  _16
REMARK    9  A    between atoms: _21  and  _22
REMARK   10  A    between atoms: _24  and  _26
REMARK   11  A    between atoms: _26  and  _27
REMARK   12  A    between atoms: _26  and  _29
REMARK   13  A    between atoms: _29  and  _30
REMARK   14  A    between atoms: _34  and  _35
REMARK   15  A    between atoms: _40  and  _42
REMARK   16  A    between atoms: _42  and  _43
REMARK   17  A    between atoms: _42  and  _45
REMARK   18  A    between atoms: _45  and  _46
REMARK   19  A    between atoms: _49  and  _51
REMARK   20  A    between atoms: _51  and  _52
REMARK   21  A    between atoms: _54  and  _56
REMARK   22  A    between atoms: _56  and  _57
REMARK   23  A    between atoms: _60  and  _62
REMARK   24  A    between atoms: _62  and  _63
REMARK   25  A    between atoms: _62  and  _65
REMARK   26  A    between atoms: _65  and  _66
REMARK   27  A    between atoms: _69  and  _71
REMARK   28  A    between atoms: _71  and  _72
REMARK   29  A    between atoms: _71  and  _74
REMARK   30  A    between atoms: _74  and  _75
REMARK   31  A    between atoms: _78  and  _80
REMARK   32  A    between atoms: _80  and  _81
REMARK   33  A    between atoms: _80  and  _83
REMARK   34  A    between atoms: _83  and  _84
REMARK   35  A    between atoms: _89  and  _90
REMARK   36  A    between atoms: _92  and  _94
REMARK   37  A    between atoms: _94  and  _95
REMARK   38  A    between atoms: _94  and  _97
REMARK   39  A    between atoms: _97  and  _98
REMARK   40  A    between atoms: _101  and  _103
REMARK   41  A    between atoms: _103  and  _104
REMARK   42  A    between atoms: _103  and  _106
REMARK   43  A    between atoms: _106  and  _107
REMARK   44  A    between atoms: _117  and  _119
REMARK   45  A    between atoms: _119  and  _120
REMARK   46  A    between atoms: _119  and  _122
REMARK   47  A    between atoms: _122  and  _123
REMARK   48  A    between atoms: _126  and  _128
REMARK   49  A    between atoms: _128  and  _129
REMARK   50  A    between atoms: _128  and  _131
REMARK   51  A    between atoms: _131  and  _132
REMARK   52  A    between atoms: _137  and  _139
REMARK   53  A    between atoms: _139  and  _140
REMARK   54  A    between atoms: _142  and  _144
REMARK   55  A    between atoms: _144  and  _145
REMARK   56  A    between atoms: _144  and  _147
REMARK   57  A    between atoms: _147  and  _148
REMARK   58  A    between atoms: _153  and  _154
REMARK   59  A    between atoms: _156  and  _158
REMARK   60  A    between atoms: _158  and  _159
REMARK   61  A    between atoms: _158  and  _161
REMARK   62  A    between atoms: _161  and  _162
REMARK   63  A    between atoms: _165  and  _167
REMARK   64  A    between atoms: _167  and  _168
REMARK   65  A    between atoms: _170  and  _172
REMARK   66  A    between atoms: _172  and  _173
REMARK   67  A    between atoms: _172  and  _175
REMARK   68  A    between atoms: _175  and  _176
REMARK   69  A    between atoms: _178  and  _180
REMARK   70  A    between atoms: _180  and  _181
REMARK   71  A    between atoms: _180  and  _183
REMARK   72  A    between atoms: _183  and  _184
REMARK   73  A    between atoms: _184  and  _185
REMARK   74  A    between atoms: _187  and  _189
REMARK   75  A    between atoms: _189  and  _190
REMARK   76  A    between atoms: _192  and  _194
REMARK   77  A    between atoms: _194  and  _195
REMARK   78  A    between atoms: _194  and  _197
REMARK   79  A    between atoms: _200  and  _202
REMARK   80  A    between atoms: _202  and  _203
REMARK   81  A    between atoms: _202  and  _205
REMARK   82  A    between atoms: _205  and  _206
REMARK   83  A    between atoms: _209  and  _211
REMARK   84  A    between atoms: _211  and  _212
REMARK   85  A    between atoms: _214  and  _216
REMARK   86  A    between atoms: _216  and  _217
REMARK   87  A    between atoms: _216  and  _219
REMARK   88  A    between atoms: _219  and  _220
REMARK   89  A    between atoms: _220  and  _221
REMARK   90  A    between atoms: _221  and  CA_702
REMARK   91  A    between atoms: _223  and  _225
REMARK   92  A    between atoms: _225  and  _226
REMARK   93  A    between atoms: _228  and  _230
REMARK   94  A    between atoms: _230  and  _231
REMARK   95  A    between atoms: _230  and  _233
REMARK   96  A    between atoms: _233  and  _234
REMARK   97  A    between atoms: _236  and  _238
REMARK   98  A    between atoms: _238  and  _239
REMARK   99  A    between atoms: _238  and  _241
REMARK  100  A    between atoms: _244  and  _246
REMARK  101  A    between atoms: _246  and  _247
REMARK  102  A    between atoms: _249  and  _251
REMARK  103  A    between atoms: _251  and  _252
REMARK  104  A    between atoms: _251  and  _254
REMARK  105  A    between atoms: _254  and  _255
REMARK  106  A    between atoms: _260  and  _261
REMARK  107  A    between atoms: _263  and  _265
REMARK  108  A    between atoms: _265  and  _266
REMARK  109  A    between atoms: _265  and  _268
REMARK  110  A    between atoms: _268  and  _269
REMARK  111  A    between atoms: _272  and  _274
REMARK  112  A    between atoms: _274  and  _275
REMARK  113  A    between atoms: _274  and  _277
REMARK  114  A    between atoms: _275  and  _276
REMARK  115  A    between atoms: _275  and  _281
REMARK  116  A    between atoms: _276  and  CA_702
REMARK  117  A    between atoms: _277  and  _278
REMARK  118  A    between atoms: _278  and  _279
REMARK  119  A    between atoms: _281  and  _283
REMARK  120  A    between atoms: _283  and  _284
REMARK  121  A    between atoms: _283  and  _286
REMARK  122  A    between atoms: _286  and  _287
REMARK  123  A    between atoms: _292  and  _294
REMARK  124  A    between atoms: _294  and  _295
REMARK  125  A    between atoms: _294  and  _297
REMARK  126  A    between atoms: _297  and  _298
REMARK  127  A    between atoms: _303  and  _305
REMARK  128  A    between atoms: _305  and  _306
REMARK  129  A    between atoms: _305  and  _308
REMARK  130  A    between atoms: _308  and  _309
REMARK  131  A    between atoms: _309  and  _310
REMARK  132  A    between atoms: _315  and  _317
REMARK  133  A    between atoms: _317  and  _318
REMARK  134  A    between atoms: _317  and  _320
REMARK  135  A    between atoms: _320  and  _321
REMARK  136  A    between atoms: _323  and  _325
REMARK  137  A    between atoms: _325  and  _326
REMARK  138  A    between atoms: _325  and  _328
REMARK  139  A    between atoms: _328  and  _329
REMARK  140  A    between atoms: _339  and  _341
REMARK  141  A    between atoms: _341  and  _342
REMARK  142  A    between atoms: _344  and  _346
REMARK  143  A    between atoms: _346  and  _347
REMARK  144  A    between atoms: _350  and  _352
REMARK  145  A    between atoms: _352  and  _353
REMARK  146  A    between atoms: _352  and  _355
REMARK  147  A    between atoms: _355  and  _356
REMARK  148  A    between atoms: _359  and  _361
REMARK  149  A    between atoms: _361  and  _362
REMARK  150  A    between atoms: _361  and  _364
REMARK  151  A    between atoms: _364  and  _365
REMARK  152  A    between atoms: _368  and  _370
REMARK  153  A    between atoms: _370  and  _371
REMARK  154  A    between atoms: _370  and  _373
REMARK  155  A    between atoms: _373  and  _374
REMARK  156  A    between atoms: _379  and  _381
REMARK  157  A    between atoms: _381  and  _382
REMARK  158  A    between atoms: _381  and  _384
REMARK  159  A    between atoms: _384  and  _385
REMARK  160  A    between atoms: _391  and  _393
REMARK  161  A    between atoms: _393  and  _394
REMARK  162  A    between atoms: _393  and  _396
REMARK  163  A    between atoms: _396  and  _397
REMARK  164  A    between atoms: _397  and  _398
REMARK  165  A    between atoms: _403  and  _405
REMARK  166  A    between atoms: _405  and  _406
REMARK  167  A    between atoms: _408  and  _410
REMARK  168  A    between atoms: _410  and  _411
REMARK  169  A    between atoms: _410  and  _413
REMARK  170  A    between atoms: _413  and  _414
REMARK  171  A    between atoms: _417  and  _419
REMARK  172  A    between atoms: _419  and  _420
REMARK  173  A    between atoms: _419  and  _422
REMARK  174  A    between atoms: _422  and  _423
REMARK  175  A    between atoms: _426  and  _428
REMARK  176  A    between atoms: _428  and  _429
REMARK  177  A    between atoms: _428  and  _431
REMARK  178  A    between atoms: _431  and  _432
REMARK  179  A    between atoms: _437  and  _438
REMARK  180  A    between atoms: _440  and  _442
REMARK  181  A    between atoms: _442  and  _443
REMARK  182  A    between atoms: _442  and  _445
REMARK  183  A    between atoms: _448  and  _450
REMARK  184  A    between atoms: _450  and  _451
REMARK  185  A    between atoms: _454  and  _456
REMARK  186  A    between atoms: _456  and  _457
REMARK  187  A    between atoms: _456  and  _459
REMARK  188  A    between atoms: _459  and  _460
REMARK  189  A    between atoms: _463  and  _465
REMARK  190  A    between atoms: _465  and  _466
REMARK  191  A    between atoms: _465  and  _468
REMARK  192  A    between atoms: _468  and  _469
REMARK  193  A    between atoms: _469  and  _470
REMARK  194  A    between atoms: _473  and  _475
REMARK  195  A    between atoms: _475  and  _476
REMARK  196  A    between atoms: _475  and  _478
REMARK  197  A    between atoms: _478  and  _479
REMARK  198  A    between atoms: _479  and  _480
REMARK  199  A    between atoms: _483  and  _485
REMARK  200  A    between atoms: _485  and  _486
REMARK  201  A    between atoms: _485  and  _488
REMARK  202  A    between atoms: _488  and  _489
REMARK  203  A    between atoms: _492  and  _494
REMARK  204  A    between atoms: _494  and  _495
REMARK  205  A    between atoms: _494  and  _497
REMARK  206  A    between atoms: _497  and  _498
REMARK  207  A    between atoms: _503  and  _505
REMARK  208  A    between atoms: _505  and  _506
REMARK  209  A    between atoms: _508  and  _510
REMARK  210  A    between atoms: _510  and  _511
REMARK  211  A    between atoms: _510  and  _513
REMARK  212  A    between atoms: _513  and  _514
REMARK  213  A    between atoms: _516  and  _518
REMARK  214  A    between atoms: _518  and  _519
REMARK  215  A    between atoms: _518  and  _521
REMARK  216  A    between atoms: _521  and  _522
REMARK  217  A    between atoms: _527  and  _529
REMARK  218  A    between atoms: _529  and  _530
REMARK  219  A    between atoms: _529  and  _532
REMARK  220  A    between atoms: _532  and  _533
REMARK  221  A    between atoms: _536  and  _538
REMARK  222  A    between atoms: _538  and  _539
REMARK  223  A    between atoms: _538  and  _541
REMARK  224  A    between atoms: _541  and  _542
REMARK  225  A    between atoms: _545  and  _547
REMARK  226  A    between atoms: _547  and  _548
REMARK  227  A    between atoms: _547  and  _550
REMARK  228  A    between atoms: _550  and  _551
REMARK  229  A    between atoms: _551  and  _552
REMARK  230  A    between atoms: _552  and  _553
REMARK  231  A    between atoms: _562  and  _564
REMARK  232  A    between atoms: _564  and  _565
REMARK  233  A    between atoms: _564  and  _567
REMARK  234  A    between atoms: _567  and  _568
REMARK  235  A    between atoms: _573  and  _575
REMARK  236  A    between atoms: _575  and  _576
REMARK  237  A    between atoms: _575  and  _578
REMARK  238  A    between atoms: _578  and  _579
REMARK  239  A    between atoms: _579  and  _580
REMARK  240  A    between atoms: _583  and  _585
REMARK  241  A    between atoms: _585  and  _586
REMARK  242  A    between atoms: _589  and  _591
REMARK  243  A    between atoms: _591  and  _592
REMARK  244  A    between atoms: _591  and  _594
REMARK  245  A    between atoms: _597  and  _599
REMARK  246  A    between atoms: _599  and  _600
REMARK  247  A    between atoms: _599  and  _602
REMARK  248  A    between atoms: _602  and  _603
REMARK  249  A    between atoms: _606  and  _608
REMARK  250  A    between atoms: _608  and  _609
REMARK  251  A    between atoms: _612  and  _614
REMARK  252  A    between atoms: _614  and  _615
REMARK  253  A    between atoms: _617  and  _619
REMARK  254  A    between atoms: _619  and  _620
REMARK  255  A    between atoms: _622  and  _624
REMARK  256  A    between atoms: _624  and  _625
REMARK  257  A    between atoms: _627  and  _629
REMARK  258  A    between atoms: _629  and  _630
REMARK  259  A    between atoms: _629  and  _632
REMARK  260  A    between atoms: _632  and  _633
REMARK  261  A    between atoms: _639  and  _641
REMARK  262  A    between atoms: _641  and  _642
REMARK  263  A    between atoms: _641  and  _644
REMARK  264  A    between atoms: _644  and  _645
REMARK  265  A    between atoms: _648  and  _650
REMARK  266  A    between atoms: _650  and  _651
REMARK  267  A    between atoms: _650  and  _653
REMARK  268  A    between atoms: _653  and  _654
REMARK  269  A    between atoms: _659  and  _661
REMARK  270  A    between atoms: _661  and  _662
REMARK  271  A    between atoms: _665  and  _667
REMARK  272  A    between atoms: _667  and  _668
REMARK  273  A    between atoms: _667  and  _670
REMARK  274  A    between atoms: _670  and  _671
REMARK  275  A    between atoms: _674  and  _676
REMARK  276  A    between atoms: _676  and  _677
REMARK  277  A    between atoms: _676  and  _679
REMARK  278  A    between atoms: _679  and  _680
REMARK  279  A    between atoms: _680  and  _681
REMARK  280  A    between atoms: _686  and  _688
REMARK  281  A    between atoms: _688  and  _689
REMARK  282  A    between atoms: _688  and  _691
REMARK  283  A    between atoms: _691  and  _692
REMARK                            x       y       z     vdW  Elec       q    Type
REMARK                         _______ _______ _______ _____ _____    ______ ____
ROOT
ATOM      1  CA  LEU A   4       7.108 -48.871 -18.493  0.00  0.00    +0.149 C 
ENDROOT
BRANCH   1   2
ATOM      2  C   LEU A   4       6.095 -48.503 -19.573  0.00  0.00    +0.241 C 
ATOM      3  N   GLY A   5       4.881 -49.040 -19.440  0.00  0.00    -0.295 N 
ATOM      4  H   GLY A   5       4.700 -49.659 -18.624  0.00  0.00    +0.150 HD
ATOM      5  O   LEU A   4       6.413 -47.753 -20.498  0.00  0.00    -0.273 OA
BRANCH   3   6
ATOM      6  CA  GLY A   5       3.793 -48.801 -20.385  0.00  0.00    +0.176 C 
BRANCH   6   7
ATOM      7  C   GLY A   5       4.151 -49.175 -21.809  0.00  0.00    +0.243 C 
ATOM      8  N   SER A   6       4.982 -50.205 -21.952  0.00  0.00    -0.295 N 
ATOM      9  H   SER A   6       5.261 -50.748 -21.110  0.00  0.00    +0.150 HD
ATOM     10  O   GLY A   5       3.682 -48.545 -22.758  0.00  0.00    -0.273 OA
BRANCH   8  11
ATOM     11  CA  SER A   6       5.514 -50.597 -23.251  0.00  0.00    +0.178 C 
BRANCH  11  12
ATOM     12  C   SER A   6       4.507 -51.424 -24.042  0.00  0.00    +0.243 C 
ATOM     13  O   SER A   6       4.129 -52.522 -23.629  0.00  0.00    -0.273 OA
ATOM     14  N   MET A   7       4.071 -50.877 -25.175  0.00  0.00    -0.297 N 
ATOM     15  H   MET A   7       4.432 -49.941 -25.449  0.00  0.00    +0.150 HD
BRANCH  14  16
ATOM     16  CA  MET A   7       3.105 -51.539 -26.049  0.00  0.00    +0.149 C 
BRANCH  16  17
ATOM     17  C   MET A   7       3.698 -52.796 -26.675  0.00  0.00    +0.241 C 
ATOM     18  N   GLY A   8       2.963 -53.901 -26.579  0.00  0.00    -0.295 N 
ATOM     19  H   GLY A   8       2.078 -53.874 -26.034  0.00  0.00    +0.150 HD
ATOM     20  O   MET A   7       4.804 -52.763 -27.219  0.00  0.00    -0.273 OA
BRANCH  18  21
ATOM     21  CA  GLY A   8       3.367 -55.151 -27.219  0.00  0.00    +0.176 C 
BRANCH  21  22
ATOM     22  C   GLY A   8       3.860 -56.239 -26.284  0.00  0.00    +0.243 C 
ATOM     23  N   VAL A   9       4.048 -55.892 -25.011  0.00  0.00    -0.298 N 
ATOM     24  H   VAL A   9       3.836 -54.916 -24.720  0.00  0.00    +0.150 HD
ATOM     25  O   GLY A   8       4.060 -57.380 -26.710  0.00  0.00    -0.273 OA
BRANCH  23  26
ATOM     26  CA  VAL A   9       4.544 -56.838 -24.005  0.00  0.00    +0.137 C 
BRANCH  26  27
ATOM     27  CB  VAL A   9       5.026 -56.119 -22.706  0.00  0.00    +0.026 C 
ATOM     28  CG2 VAL A   9       3.851 -55.546 -21.912  0.00  0.00    +0.002 C 
ATOM     29  CG1 VAL A   9       6.041 -55.030 -23.031  0.00  0.00    +0.002 C 
ENDBRANCH  26  27
BRANCH  26  30
ATOM     30  C   VAL A   9       3.526 -57.927 -23.641  0.00  0.00    +0.227 C 
ATOM     31  O   VAL A   9       3.893 -58.959 -23.075  0.00  0.00    -0.286 OA
ENDBRANCH  26  30
ENDBRANCH  23  26
ENDBRANCH  21  22
ENDBRANCH  18  21
ENDBRANCH  16  17
BRANCH  16  32
ATOM     32  CB  MET A   7       2.627 -50.582 -27.148  0.00  0.00    +0.041 C 
BRANCH  32  33
ATOM     33  CG  MET A   7       1.878 -49.360 -26.633  0.00  0.00    +0.060 C 
BRANCH  33  34
ATOM     34  SD  MET A   7       0.351 -49.775 -25.772  0.00  0.00    -0.139 S 
ATOM     35  CE  MET A   7       0.391 -48.586 -24.437  0.00  0.00    +0.069 C 
ENDBRANCH  33  34
ENDBRANCH  32  33
ENDBRANCH  16  32
ENDBRANCH  14  16
ENDBRANCH  11  12
BRANCH  11  36
ATOM     36  CB  SER A   6       6.835 -51.355 -23.081  0.00  0.00    +0.166 C 
BRANCH  36  37
ATOM     37  OG  SER A   6       7.454 -51.594 -24.332  0.00  0.00    -0.380 OA
ATOM     38  H   SER A   6       6.850 -52.135 -24.900  0.00  0.00    +0.211 HD
ENDBRANCH  36  37
ENDBRANCH  11  36
ENDBRANCH   8  11
ENDBRANCH   6   7
ENDBRANCH   3   6
ENDBRANCH   1   2
BRANCH   1  40
ATOM     39  C   TYR A   3       5.925 -47.800 -16.649  0.00  0.00    +0.241 C 
ATOM     40  N   LEU A   4       6.468 -48.896 -17.178  0.00  0.00    -0.297 N 
ATOM     41  H   LEU A   4       6.436 -49.788 -16.644  0.00  0.00    +0.150 HD
ATOM     42  O   TYR A   3       5.922 -46.708 -17.223  0.00  0.00    -0.273 OA
BRANCH  39  43
ATOM     43  CA  TYR A   3       5.291 -47.936 -15.267  0.00  0.00    +0.153 C 
BRANCH  43  45
ATOM     44  C   GLY A   2       3.648 -49.708 -15.650  0.00  0.00    +0.243 C 
ATOM     45  N   TYR A   3       4.723 -49.262 -15.004  0.00  0.00    -0.297 N 
ATOM     46  H   TYR A   3       5.173 -49.872 -14.292  0.00  0.00    +0.150 HD
ATOM     47  O   GLY A   2       3.095 -49.077 -16.554  0.00  0.00    -0.273 OA
BRANCH  44  48
ATOM     48  CA  GLY A   2       3.125 -51.070 -15.235  0.00  0.00    +0.176 C 
BRANCH  48  51
ATOM     49  C   HIS A   1       1.296 -51.853 -16.655  0.00  0.00    +0.239 C 
ATOM     50  O   HIS A   1       0.425 -51.475 -15.867  0.00  0.00    -0.274 OA
ATOM     51  N   GLY A   2       2.599 -51.780 -16.396  0.00  0.00    -0.296 N 
ATOM     52  H   GLY A   2       3.266 -52.245 -17.044  0.00  0.00    +0.150 HD
BRANCH  49  53
ATOM     53  CA  HIS A   1       0.918 -52.444 -18.008  0.00  0.00    +0.151 C 
BRANCH  53  54
ATOM     54  N   HIS A   1      -0.281 -53.278 -17.926  0.00  0.00    -0.238 NA
ATOM     55  H   HIS A   1      -1.121 -53.000 -18.473  0.00  0.00    +0.142 HD
ENDBRANCH  53  54
BRANCH  53  56
ATOM     56  CB  HIS A   1       0.715 -51.299 -19.004  0.00  0.00    +0.074 C 
BRANCH  56  57
ATOM     57  CG  HIS A   1       0.784 -51.716 -20.440  0.00  0.00    +0.082 A 
ATOM     58  CD2 HIS A   1       1.756 -52.347 -21.142  0.00  0.00    +0.115 A 
ATOM     59  NE2 HIS A   1       1.304 -52.478 -22.432  0.00  0.00    -0.221 NA
ATOM     60  CE1 HIS A   1       0.099 -51.945 -22.520  0.00  0.00    +0.199 A 
ATOM     61  ND1 HIS A   1      -0.239 -51.479 -21.332  0.00  0.00    -0.227 NA
ENDBRANCH  56  57
ENDBRANCH  53  56
ENDBRANCH  49  53
ENDBRANCH  48  51
ENDBRANCH  44  48
ENDBRANCH  43  45
BRANCH  43  62
ATOM     62  CB  TYR A   3       6.315 -47.545 -14.197  0.00  0.00    +0.055 C 
BRANCH  62  63
ATOM     63  CG  TYR A   3       5.754 -47.367 -12.803  0.00  0.00    -0.020 A 
ATOM     64  CD2 TYR A   3       6.556 -47.584 -11.685  0.00  0.00    -0.001 A 
ATOM     65  CE2 TYR A   3       6.059 -47.416 -10.400  0.00  0.00    +0.036 A 
ATOM     66  CZ  TYR A   3       4.745 -47.014 -10.221  0.00  0.00    +0.134 A 
ATOM     67  CE1 TYR A   3       3.925 -46.782 -11.314  0.00  0.00    +0.036 A 
ATOM     68  CD1 TYR A   3       4.435 -46.951 -12.599  0.00  0.00    -0.001 A 
BRANCH  66  69
ATOM     69  OH  TYR A   3       4.255 -46.845  -8.947  0.00  0.00    -0.506 OA
ATOM     70  HH  TYR A   3       3.309 -46.558  -8.994  0.00  0.00    +0.292 HD
ENDBRANCH  66  69
ENDBRANCH  62  63
ENDBRANCH  43  62
ENDBRANCH  39  43
ENDBRANCH   1  40
BRANCH   1  71
ATOM     71  CB  LEU A   4       7.758 -50.218 -18.829  0.00  0.00    +0.029 C 
BRANCH  71  72
ATOM     72  CG  LEU A   4       9.203 -50.265 -19.353  0.00  0.00    +0.002 C 
ATOM     73  CD2 LEU A   4       9.658 -48.960 -19.985  0.00  0.00    +0.000 C 
ATOM     74  CD1 LEU A   4       9.380 -51.408 -20.343  0.00  0.00    +0.000 C 
ENDBRANCH  71  72
ENDBRANCH   1  71
TORSDOF 31
REMARK  Name = ../refined-set-2016/3iae/3iae_pocket.pdb
REMARK  283 active torsions:
REMARK  status: ('A' for Active; 'I' for Inactive)
REMARK    1  A    between atoms: _1  and  _3
REMARK    2  A    between atoms: _3  and  _4
REMARK    3  A    between atoms: _3  and  _6
REMARK    4  A    between atoms: _6  and  _7
REMARK    5  A    between atoms: _10  and  _12
REMARK    6  A    between atoms: _12  and  _13
REMARK    7  A    between atoms: _12  and  _15
REMARK    8  A    between atoms: _15  and  _16
REMARK    9  A    between atoms: _21  and  _22
REMARK   10  A    between atoms: _24  and  _26
REMARK   11  A    between atoms: _26  and  _27
REMARK   12  A    between atoms: _26  and  _29
REMARK   13  A    between atoms: _29  and  _30
REMARK   14  A    between atoms: _34  and  _35
REMARK   15  A    between atoms: _40  and  _42
REMARK   16  A    between atoms: _42  and  _43
REMARK   17  A    between atoms: _42  and  _45
REMARK   18  A    between atoms: _45  and  _46
REMARK   19  A    between atoms: _49  and  _51
REMARK   20  A    between atoms: _51  and  _52
REMARK   21  A    between atoms: _54  and  _56
REMARK   22  A    between atoms: _56  and  _57
REMARK   23  A    between atoms: _60  and  _62
REMARK   24  A    between atoms: _62  and  _63
REMARK   25  A    between atoms: _62  and  _65
REMARK   26  A    between atoms: _65  and  _66
REMARK   27  A    between atoms: _69  and  _71
REMARK   28  A    between atoms: _71  and  _72
REMARK   29  A    between atoms: _71  and  _74
REMARK   30  A    between atoms: _74  and  _75
REMARK   31  A    between atoms: _78  and  _80
REMARK   32  A    between atoms: _80  and  _81
REMARK   33  A    between atoms: _80  and  _83
REMARK   34  A    between atoms: _83  and  _84
REMARK   35  A    between atoms: _89  and  _90
REMARK   36  A    between atoms: _92  and  _94
REMARK   37  A    between atoms: _94  and  _95
REMARK   38  A    between atoms: _94  and  _97
REMARK   39  A    between atoms: _97  and  _98
REMARK   40  A    between atoms: _101  and  _103
REMARK   41  A    between atoms: _103  and  _104
REMARK   42  A    between atoms: _103  and  _106
REMARK   43  A    between atoms: _106  and  _107
REMARK   44  A    between atoms: _117  and  _119
REMARK   45  A    between atoms: _119  and  _120
REMARK   46  A    between atoms: _119  and  _122
REMARK   47  A    between atoms: _122  and  _123
REMARK   48  A    between atoms: _126  and  _128
REMARK   49  A    between atoms: _128  and  _129
REMARK   50  A    between atoms: _128  and  _131
REMARK   51  A    between atoms: _131  and  _132
REMARK   52  A    between atoms: _137  and  _139
REMARK   53  A    between atoms: _139  and  _140
REMARK   54  A    between atoms: _142  and  _144
REMARK   55  A    between atoms: _144  and  _145
REMARK   56  A    between atoms: _144  and  _147
REMARK   57  A    between atoms: _147  and  _148
REMARK   58  A    between atoms: _153  and  _154
REMARK   59  A    between atoms: _156  and  _158
REMARK   60  A    between atoms: _158  and  _159
REMARK   61  A    between atoms: _158  and  _161
REMARK   62  A    between atoms: _161  and  _162
REMARK   63  A    between atoms: _165  and  _167
REMARK   64  A    between atoms: _167  and  _168
REMARK   65  A    between atoms: _170  and  _172
REMARK   66  A    between atoms: _172  and  _173
REMARK   67  A    between atoms: _172  and  _175
REMARK   68  A    between atoms: _175  and  _176
REMARK   69  A    between atoms: _178  and  _180
REMARK   70  A    between atoms: _180  and  _181
REMARK   71  A    between atoms: _180  and  _183
REMARK   72  A    between atoms: _183  and  _184
REMARK   73  A    between atoms: _184  and  _185
REMARK   74  A    between atoms: _187  and  _189
REMARK   75  A    between atoms: _189  and  _190
REMARK   76  A    between atoms: _192  and  _194
REMARK   77  A    between atoms: _194  and  _195
REMARK   78  A    between atoms: _194  and  _197
REMARK   79  A    between atoms: _200  and  _202
REMARK   80  A    between atoms: _202  and  _203
REMARK   81  A    between atoms: _202  and  _205
REMARK   82  A    between atoms: _205  and  _206
REMARK   83  A    between atoms: _209  and  _211
REMARK   84  A    between atoms: _211  and  _212
REMARK   85  A    between atoms: _214  and  _216
REMARK   86  A    between atoms: _216  and  _217
REMARK   87  A    between atoms: _216  and  _219
REMARK   88  A    between atoms: _219  and  _220
REMARK   89  A    between atoms: _220  and  _221
REMARK   90  A    between atoms: _221  and  CA_702
REMARK   91  A    between atoms: _223  and  _225
REMARK   92  A    between atoms: _225  and  _226
REMARK   93  A    between atoms: _228  and  _230
REMARK   94  A    between atoms: _230  and  _231
REMARK   95  A    between atoms: _230  and  _233
REMARK   96  A    between atoms: _233  and  _234
REMARK   97  A    between atoms: _236  and  _238
REMARK   98  A    between atoms: _238  and  _239
REMARK   99  A    between atoms: _238  and  _241
REMARK  100  A    between atoms: _244  and  _246
REMARK  101  A    between atoms: _246  and  _247
REMARK  102  A    between atoms: _249  and  _251
REMARK  103  A    between atoms: _251  and  _252
REMARK  104  A    between atoms: _251  and  _254
REMARK  105  A    between atoms: _254  and  _255
REMARK  106  A    between atoms: _260  and  _261
REMARK  107  A    between atoms: _263  and  _265
REMARK  108  A    between atoms: _265  and  _266
REMARK  109  A    between atoms: _265  and  _268
REMARK  110  A    between atoms: _268  and  _269
REMARK  111  A    between atoms: _272  and  _274
REMARK  112  A    between atoms: _274  and  _275
REMARK  113  A    between atoms: _274  and  _277
REMARK  114  A    between atoms: _275  and  _276
REMARK  115  A    between atoms: _275  and  _281
REMARK  116  A    between atoms: _276  and  CA_702
REMARK  117  A    between atoms: _277  and  _278
REMARK  118  A    between atoms: _278  and  _279
REMARK  119  A    between atoms: _281  and  _283
REMARK  120  A    between atoms: _283  and  _284
REMARK  121  A    between atoms: _283  and  _286
REMARK  122  A    between atoms: _286  and  _287
REMARK  123  A    between atoms: _292  and  _294
REMARK  124  A    between atoms: _294  and  _295
REMARK  125  A    between atoms: _294  and  _297
REMARK  126  A    between atoms: _297  and  _298
REMARK  127  A    between atoms: _303  and  _305
REMARK  128  A    between atoms: _305  and  _306
REMARK  129  A    between atoms: _305  and  _308
REMARK  130  A    between atoms: _308  and  _309
REMARK  131  A    between atoms: _309  and  _310
REMARK  132  A    between atoms: _315  and  _317
REMARK  133  A    between atoms: _317  and  _318
REMARK  134  A    between atoms: _317  and  _320
REMARK  135  A    between atoms: _320  and  _321
REMARK  136  A    between atoms: _323  and  _325
REMARK  137  A    between atoms: _325  and  _326
REMARK  138  A    between atoms: _325  and  _328
REMARK  139  A    between atoms: _328  and  _329
REMARK  140  A    between atoms: _339  and  _341
REMARK  141  A    between atoms: _341  and  _342
REMARK  142  A    between atoms: _344  and  _346
REMARK  143  A    between atoms: _346  and  _347
REMARK  144  A    between atoms: _350  and  _352
REMARK  145  A    between atoms: _352  and  _353
REMARK  146  A    between atoms: _352  and  _355
REMARK  147  A    between atoms: _355  and  _356
REMARK  148  A    between atoms: _359  and  _361
REMARK  149  A    between atoms: _361  and  _362
REMARK  150  A    between atoms: _361  and  _364
REMARK  151  A    between atoms: _364  and  _365
REMARK  152  A    between atoms: _368  and  _370
REMARK  153  A    between atoms: _370  and  _371
REMARK  154  A    between atoms: _370  and  _373
REMARK  155  A    between atoms: _373  and  _374
REMARK  156  A    between atoms: _379  and  _381
REMARK  157  A    between atoms: _381  and  _382
REMARK  158  A    between atoms: _381  and  _384
REMARK  159  A    between atoms: _384  and  _385
REMARK  160  A    between atoms: _391  and  _393
REMARK  161  A    between atoms: _393  and  _394
REMARK  162  A    between atoms: _393  and  _396
REMARK  163  A    between atoms: _396  and  _397
REMARK  164  A    between atoms: _397  and  _398
REMARK  165  A    between atoms: _403  and  _405
REMARK  166  A    between atoms: _405  and  _406
REMARK  167  A    between atoms: _408  and  _410
REMARK  168  A    between atoms: _410  and  _411
REMARK  169  A    between atoms: _410  and  _413
REMARK  170  A    between atoms: _413  and  _414
REMARK  171  A    between atoms: _417  and  _419
REMARK  172  A    between atoms: _419  and  _420
REMARK  173  A    between atoms: _419  and  _422
REMARK  174  A    between atoms: _422  and  _423
REMARK  175  A    between atoms: _426  and  _428
REMARK  176  A    between atoms: _428  and  _429
REMARK  177  A    between atoms: _428  and  _431
REMARK  178  A    between atoms: _431  and  _432
REMARK  179  A    between atoms: _437  and  _438
REMARK  180  A    between atoms: _440  and  _442
REMARK  181  A    between atoms: _442  and  _443
REMARK  182  A    between atoms: _442  and  _445
REMARK  183  A    between atoms: _448  and  _450
REMARK  184  A    between atoms: _450  and  _451
REMARK  185  A    between atoms: _454  and  _456
REMARK  186  A    between atoms: _456  and  _457
REMARK  187  A    between atoms: _456  and  _459
REMARK  188  A    between atoms: _459  and  _460
REMARK  189  A    between atoms: _463  and  _465
REMARK  190  A    between atoms: _465  and  _466
REMARK  191  A    between atoms: _465  and  _468
REMARK  192  A    between atoms: _468  and  _469
REMARK  193  A    between atoms: _469  and  _470
REMARK  194  A    between atoms: _473  and  _475
REMARK  195  A    between atoms: _475  and  _476
REMARK  196  A    between atoms: _475  and  _478
REMARK  197  A    between atoms: _478  and  _479
REMARK  198  A    between atoms: _479  and  _480
REMARK  199  A    between atoms: _483  and  _485
REMARK  200  A    between atoms: _485  and  _486
REMARK  201  A    between atoms: _485  and  _488
REMARK  202  A    between atoms: _488  and  _489
REMARK  203  A    between atoms: _492  and  _494
REMARK  204  A    between atoms: _494  and  _495
REMARK  205  A    between atoms: _494  and  _497
REMARK  206  A    between atoms: _497  and  _498
REMARK  207  A    between atoms: _503  and  _505
REMARK  208  A    between atoms: _505  and  _506
REMARK  209  A    between atoms: _508  and  _510
REMARK  210  A    between atoms: _510  and  _511
REMARK  211  A    between atoms: _510  and  _513
REMARK  212  A    between atoms: _513  and  _514
REMARK  213  A    between atoms: _516  and  _518
REMARK  214  A    between atoms: _518  and  _519
REMARK  215  A    between atoms: _518  and  _521
REMARK  216  A    between atoms: _521  and  _522
REMARK  217  A    between atoms: _527  and  _529
REMARK  218  A    between atoms: _529  and  _530
REMARK  219  A    between atoms: _529  and  _532
REMARK  220  A    between atoms: _532  and  _533
REMARK  221  A    between atoms: _536  and  _538
REMARK  222  A    between atoms: _538  and  _539
REMARK  223  A    between atoms: _538  and  _541
REMARK  224  A    between atoms: _541  and  _542
REMARK  225  A    between atoms: _545  and  _547
REMARK  226  A    between atoms: _547  and  _548
REMARK  227  A    between atoms: _547  and  _550
REMARK  228  A    between atoms: _550  and  _551
REMARK  229  A    between atoms: _551  and  _552
REMARK  230  A    between atoms: _552  and  _553
REMARK  231  A    between atoms: _562  and  _564
REMARK  232  A    between atoms: _564  and  _565
REMARK  233  A    between atoms: _564  and  _567
REMARK  234  A    between atoms: _567  and  _568
REMARK  235  A    between atoms: _573  and  _575
REMARK  236  A    between atoms: _575  and  _576
REMARK  237  A    between atoms: _575  and  _578
REMARK  238  A    between atoms: _578  and  _579
REMARK  239  A    between atoms: _579  and  _580
REMARK  240  A    between atoms: _583  and  _585
REMARK  241  A    between atoms: _585  and  _586
REMARK  242  A    between atoms: _589  and  _591
REMARK  243  A    between atoms: _591  and  _592
REMARK  244  A    between atoms: _591  and  _594
REMARK  245  A    between atoms: _597  and  _599
REMARK  246  A    between atoms: _599  and  _600
REMARK  247  A    between atoms: _599  and  _602
REMARK  248  A    between atoms: _602  and  _603
REMARK  249  A    between atoms: _606  and  _608
REMARK  250  A    between atoms: _608  and  _609
REMARK  251  A    between atoms: _612  and  _614
REMARK  252  A    between atoms: _614  and  _615
REMARK  253  A    between atoms: _617  and  _619
REMARK  254  A    between atoms: _619  and  _620
REMARK  255  A    between atoms: _622  and  _624
REMARK  256  A    between atoms: _624  and  _625
REMARK  257  A    between atoms: _627  and  _629
REMARK  258  A    between atoms: _629  and  _630
REMARK  259  A    between atoms: _629  and  _632
REMARK  260  A    between atoms: _632  and  _633
REMARK  261  A    between atoms: _639  and  _641
REMARK  262  A    between atoms: _641  and  _642
REMARK  263  A    between atoms: _641  and  _644
REMARK  264  A    between atoms: _644  and  _645
REMARK  265  A    between atoms: _648  and  _650
REMARK  266  A    between atoms: _650  and  _651
REMARK  267  A    between atoms: _650  and  _653
REMARK  268  A    between atoms: _653  and  _654
REMARK  269  A    between atoms: _659  and  _661
REMARK  270  A    between atoms: _661  and  _662
REMARK  271  A    between atoms: _665  and  _667
REMARK  272  A    between atoms: _667  and  _668
REMARK  273  A    between atoms: _667  and  _670
REMARK  274  A    between atoms: _670  and  _671
REMARK  275  A    between atoms: _674  and  _676
REMARK  276  A    between atoms: _676  and  _677
REMARK  277  A    between atoms: _676  and  _679
REMARK  278  A    between atoms: _679  and  _680
REMARK  279  A    between atoms: _680  and  _681
REMARK  280  A    between atoms: _686  and  _688
REMARK  281  A    between atoms: _688  and  _689
REMARK  282  A    between atoms: _688  and  _691
REMARK  283  A    between atoms: _691  and  _692
REMARK                            x       y       z     vdW  Elec       q    Type
REMARK                         _______ _______ _______ _____ _____    ______ ____
ROOT
ATOM      1  CA  ASN A   2      -9.643 -49.618 -34.019  0.00  0.00    +0.000 C 
ENDROOT
BRANCH   1   2
ATOM      2  C   ASN A   2      -8.823 -48.990 -35.154  0.00  0.00    +0.000 C 
ATOM      3  O   ASN A   2      -8.793 -47.764 -35.317  0.00  0.00    +0.000 OA
ATOM      4  N   UNK A   3      -8.152 -49.853 -35.920  0.00  0.00    +0.000 N 
ATOM      5  H   UNK A   3      -8.128 -50.850 -35.626  0.00  0.00    +0.000 HD
BRANCH   4   6
ATOM      6  C   UNK A   3      -7.445 -49.480 -37.153  0.00  0.00    +0.000 C 
BRANCH   6   7
ATOM      7  C   UNK A   3      -6.366 -48.411 -36.951  0.00  0.00    +0.000 C 
ATOM      8  N   SER A   4      -5.734 -48.404 -35.776  0.00  0.00    +0.000 N 
ATOM      9  H   SER A   4      -5.922 -49.166 -35.094  0.00  0.00    +0.000 HD
ATOM     10  O   UNK A   3      -6.109 -47.610 -37.855  0.00  0.00    +0.000 OA
BRANCH   8  11
ATOM     11  CA  SER A   4      -4.781 -47.347 -35.424  0.00  0.00    +0.000 C 
BRANCH  11  12
ATOM     12  C   SER A   4      -4.055 -47.559 -34.097  0.00  0.00    +0.000 C 
ATOM     13  O   SER A   4      -4.463 -48.381 -33.270  0.00  0.00    +0.000 OA
ATOM     14  N   TRP A   5      -2.968 -46.807 -33.916  0.00  0.00    +0.000 N 
ATOM     15  H   TRP A   5      -2.528 -46.360 -34.745  0.00  0.00    +0.000 HD
BRANCH  14  16
ATOM     16  CA  TRP A   5      -2.371 -46.585 -32.603  0.00  0.00    +0.000 C 
BRANCH  16  17
ATOM     17  C   TRP A   5      -3.266 -45.564 -31.888  0.00  0.00    +0.000 C 
ATOM     18  N   GLY A   6      -4.285 -46.072 -31.196  0.00  0.00    +0.000 N 
ATOM     19  H   GLY A   6      -4.282 -47.092 -30.995  0.00  0.00    +0.000 HD
ATOM     20  O   TRP A   5      -3.032 -44.352 -31.966  0.00  0.00    +0.000 OA
BRANCH  18  21
ATOM     21  CA  GLY A   6      -5.412 -45.271 -30.702  0.00  0.00    +0.000 C 
BRANCH  21  22
ATOM     22  C   GLY A   6      -5.143 -44.087 -29.791  0.00  0.00    +0.000 C 
ATOM     23  N   ALA A   7      -4.563 -44.351 -28.621  0.00  0.00    +0.000 N 
ATOM     24  H   ALA A   7      -4.273 -45.328 -28.413  0.00  0.00    +0.000 HD
ATOM     25  O   GLY A   6      -5.475 -42.949 -30.139  0.00  0.00    +0.000 OA
BRANCH  23  26
ATOM     26  CA  ALA A   7      -4.319 -43.309 -27.616  0.00  0.00    +0.000 C 
ATOM     27  CB  ALA A   7      -3.776 -43.917 -26.336  0.00  0.00    +0.000 C 
BRANCH  26  28
ATOM     28  C   ALA A   7      -3.390 -42.204 -28.116  0.00  0.00    +0.000 C 
ATOM     29  O   ALA A   7      -3.533 -41.043 -27.727  0.00  0.00    +0.000 OA
ATOM     30  N   THR A   8      -2.443 -42.575 -28.975  0.00  0.00    +0.000 N 
ATOM     31  H   THR A   8      -2.352 -43.582 -29.220  0.00  0.00    +0.000 HD
BRANCH  30  32
ATOM     32  CA  THR A   8      -1.528 -41.614 -29.585  0.00  0.00    +0.000 C 
BRANCH  32  33
ATOM     33  C   THR A   8      -2.228 -40.765 -30.643  0.00  0.00    +0.000 C 
ATOM     34  O   THR A   8      -1.918 -39.581 -30.795  0.00  0.00    +0.000 OA
ATOM     35  N   LEU A   9      -3.164 -41.378 -31.369  0.00  0.00    +0.000 N 
ATOM     36  H   LEU A   9      -3.301 -42.402 -31.247  0.00  0.00    +0.000 HD
BRANCH  35  37
ATOM     37  CA  LEU A   9      -4.006 -40.664 -32.331  0.00  0.00    +0.000 C 
BRANCH  37  38
ATOM     38  C   LEU A   9      -4.935 -39.691 -31.605  0.00  0.00    +0.000 C 
ATOM     39  N   HIS A  10      -5.457 -40.132 -30.460  0.00  0.00    +0.000 N 
ATOM     40  H   HIS A  10      -5.258 -41.111 -30.173  0.00  0.00    +0.000 HD
ATOM     41  O   LEU A   9      -5.169 -38.576 -32.077  0.00  0.00    +0.000 OA
BRANCH  39  42
ATOM     42  CA  HIS A  10      -6.295 -39.310 -29.587  0.00  0.00    +0.000 C 
BRANCH  42  43
ATOM     43  C   HIS A  10      -5.536 -38.104 -29.038  0.00  0.00    +0.000 C 
ATOM     44  N   PHE A  11      -4.257 -38.305 -28.718  0.00  0.00    +0.000 N 
ATOM     45  H   PHE A  11      -3.865 -39.265 -28.799  0.00  0.00    +0.000 HD
ATOM     46  O   HIS A  10      -6.105 -37.019 -28.908  0.00  0.00    +0.000 OA
BRANCH  44  47
ATOM     47  CA  PHE A  11      -3.386 -37.224 -28.257  0.00  0.00    +0.000 C 
BRANCH  47  48
ATOM     48  C   PHE A  11      -3.167 -36.182 -29.354  0.00  0.00    +0.000 C 
ATOM     49  O   PHE A  11      -3.155 -34.983 -29.081  0.00  0.00    +0.000 OA
ATOM     50  N   GLN A  12      -2.996 -36.651 -30.589  0.00  0.00    +0.000 N 
ATOM     51  H   GLN A  12      -2.992 -37.680 -30.738  0.00  0.00    +0.000 HD
BRANCH  50  52
ATOM     52  CA  GLN A  12      -2.813 -35.771 -31.744  0.00  0.00    +0.000 C 
BRANCH  52  53
ATOM     53  C   GLN A  12      -4.056 -34.924 -32.021  0.00  0.00    +0.000 C 
ATOM     54  O   GLN A  12      -3.943 -33.752 -32.378  0.00  0.00    +0.000 OA
ENDBRANCH  52  53
BRANCH  52  55
ATOM     55  CB  GLN A  12      -2.429 -36.577 -32.988  0.00  0.00    +0.000 C 
BRANCH  55  56
ATOM     56  CG  GLN A  12      -1.003 -37.116 -32.974  0.00  0.00    +0.000 C 
BRANCH  56  57
ATOM     57  CD  GLN A  12      -0.632 -37.846 -34.255  0.00  0.00    +0.000 C 
ATOM     58  NE2 GLN A  12       0.573 -37.591 -34.751  0.00  0.00    +0.000 N 
ATOM     59 HE21 GLN A  12       1.203 -36.920 -34.267  0.00  0.00    +0.000 HD
ATOM     60 HE22 GLN A  12       0.887 -38.063 -35.623  0.00  0.00    +0.000 HD
ATOM     61  OE1 GLN A  12      -1.415 -38.632 -34.789  0.00  0.00    +0.000 OA
ENDBRANCH  56  57
ENDBRANCH  55  56
ENDBRANCH  52  55
ENDBRANCH  50  52
ENDBRANCH  47  48
BRANCH  47  62
ATOM     62  CB  PHE A  11      -2.040 -37.773 -27.767  0.00  0.00    +0.000 C 
BRANCH  62  63
ATOM     63  CG  PHE A  11      -1.092 -36.709 -27.270  0.00  0.00    +0.000 A 
ATOM     64  CD2 PHE A  11      -1.175 -36.239 -25.961  0.00  0.00    +0.000 A 
ATOM     65  CE2 PHE A  11      -0.303 -35.254 -25.498  0.00  0.00    +0.000 A 
ATOM     66  CZ  PHE A  11       0.666 -34.727 -26.350  0.00  0.00    +0.000 A 
ATOM     67  CE1 PHE A  11       0.757 -35.188 -27.660  0.00  0.00    +0.000 A 
ATOM     68  CD1 PHE A  11      -0.118 -36.174 -28.113  0.00  0.00    +0.000 A 
ENDBRANCH  62  63
ENDBRANCH  47  62
ENDBRANCH  44  47
ENDBRANCH  42  43
BRANCH  42  69
ATOM     69  CB  HIS A  10      -6.845 -40.153 -28.433  0.00  0.00    +0.000 C 
BRANCH  69  70
ATOM     70  CG  HIS A  10      -8.087 -40.916 -28.775  0.00  0.00    +0.000 A 
ATOM     71  ND1 HIS A  10      -9.100 -41.132 -27.865  0.00  0.00    +0.000 NA
ATOM     72  CE1 HIS A  10     -10.066 -41.825 -28.440  0.00  0.00    +0.000 A 
ATOM     73  NE2 HIS A  10      -9.721 -42.062 -29.692  0.00  0.00    +0.000 NA
ATOM     74  CD2 HIS A  10      -8.487 -41.505 -29.928  0.00  0.00    +0.000 A 
ENDBRANCH  69  70
ENDBRANCH  42  69
ENDBRANCH  39  42
ENDBRANCH  37  38
BRANCH  37  75
ATOM     75  CB  LEU A   9      -4.813 -41.654 -33.183  0.00  0.00    +0.000 C 
BRANCH  75  76
ATOM     76  CG  LEU A   9      -5.569 -41.137 -34.415  0.00  0.00    +0.000 C 
ATOM     77  CD2 LEU A   9      -6.984 -40.676 -34.071  0.00  0.00    +0.000 C 
ATOM     78  CD1 LEU A   9      -5.602 -42.199 -35.504  0.00  0.00    +0.000 C 
ENDBRANCH  75  76
ENDBRANCH  37  75
ENDBRANCH  35  37
ENDBRANCH  32  33
BRANCH  32  79
ATOM     79  CB  THR A   8      -0.297 -42.301 -30.205  0.00  0.00    +0.000 C 
ATOM     80  CG2 THR A   8       0.693 -42.685 -29.129  0.00  0.00    +0.000 C 
BRANCH  79  81
ATOM     81  OG1 THR A   8      -0.703 -43.479 -30.910  0.00  0.00    +0.000 OA
ATOM     82  HG1 THR A   8      -1.336 -43.230 -31.629  0.00  0.00    +0.000 HD
ENDBRANCH  79  81
ENDBRANCH  32  79
ENDBRANCH  30  32
ENDBRANCH  26  28
ENDBRANCH  23  26
ENDBRANCH  21  22
ENDBRANCH  18  21
ENDBRANCH  16  17
BRANCH  16  83
ATOM     83  CB  TRP A   5      -0.947 -46.033 -32.730  0.00  0.00    +0.000 C 
BRANCH  83  84
ATOM     84  CG  TRP A   5       0.019 -46.876 -33.511  0.00  0.00    +0.000 A 
ATOM     85  CD2 TRP A   5       0.756 -48.013 -33.036  0.00  0.00    +0.000 A 
ATOM     86  CE3 TRP A   5       0.814 -48.694 -31.811  0.00  0.00    +0.000 A 
ATOM     87  CZ3 TRP A   5       1.658 -49.796 -31.699  0.00  0.00    +0.000 A 
ATOM     88  CH2 TRP A   5       2.433 -50.231 -32.788  0.00  0.00    +0.000 A 
ATOM     89  CZ2 TRP A   5       2.396 -49.583 -33.997  0.00  0.00    +0.000 A 
ATOM     90  CE2 TRP A   5       1.551 -48.473 -34.109  0.00  0.00    +0.000 A 
ATOM     91  NE1 TRP A   5       1.313 -47.649 -35.178  0.00  0.00    +0.000 N 
ATOM     92  HE1 TRP A   5       1.754 -47.734 -36.116  0.00  0.00    +0.000 HD
ATOM     93  CD1 TRP A   5       0.398 -46.693 -34.809  0.00  0.00    +0.000 A 
ENDBRANCH  83  84
ENDBRANCH  16  83
ENDBRANCH  14  16
ENDBRANCH  11  12
BRANCH  11  94
ATOM     94  CB  SER A   4      -5.501 -45.992 -35.374  0.00  0.00    +0.000 C 
BRANCH  94  95
ATOM     95  OG  SER A   4      -6.378 -45.929 -34.265  0.00  0.00    +0.000 OA
ATOM     96  H   SER A   4      -7.055 -46.648 -34.340  0.00  0.00    +0.000 HD
ENDBRANCH  94  95
ENDBRANCH  11  94
ENDBRANCH   8  11
ENDBRANCH   6   7
BRANCH   6  97
ATOM     97  C   UNK A   3      -8.445 -49.023 -38.230  0.00  0.00    +0.000 C 
BRANCH  97  98
ATOM     98  C   UNK A   3      -9.501 -50.057 -38.621  0.00  0.00    +0.000 C 
BRANCH  98  99
ATOM     99  C   UNK A   3      -9.093 -50.897 -39.819  0.00  0.00    +0.000 C 
ATOM    100  N   UNK A   3      -8.145 -51.807 -39.614  0.00  0.00    +0.000 N 
ATOM    101  H   UNK A   3      -7.727 -51.919 -38.668  0.00  0.00    +0.000 HD
ATOM    102  H   UNK A   3      -7.822 -52.407 -40.400  0.00  0.00    +0.000 HD
ATOM    103  O   UNK A   3      -9.621 -50.723 -40.917  0.00  0.00    +0.000 OA
ENDBRANCH  98  99
ENDBRANCH  97  98
ENDBRANCH   6  97
ENDBRANCH   4   6
ENDBRANCH   1   2
BRANCH   1 105
ATOM    104  C   ASN A   1      -9.763 -52.064 -33.975  0.00  0.00    +0.000 C 
ATOM    105  N   ASN A   2      -9.132 -50.939 -33.642  0.00  0.00    +0.000 N 
ATOM    106  H   ASN A   2      -8.248 -51.000 -33.097  0.00  0.00    +0.000 HD
ATOM    107  O   ASN A   1     -10.901 -52.086 -34.458  0.00  0.00    +0.000 OA
BRANCH 104 108
ATOM    108  CA  ASN A   1      -9.002 -53.362 -33.706  0.00  0.00    +0.000 C 
BRANCH 108 109
ATOM    109  N   ASN A   1      -9.425 -54.004 -32.471  0.00  0.00    +0.000 NA
ATOM    110  H   ASN A   1     -10.158 -54.740 -32.519  0.00  0.00    +0.000 HD
BRANCH 109 111
ATOM    111  C   UNK A   3      -8.916 -53.691 -31.283  0.00  0.00    +0.000 C 
BRANCH 111 112
ATOM    112  O   UNK A   3      -8.131 -52.754 -31.099  0.00  0.00    +0.000 OA
BRANCH 112 113
ATOM    113 CA   UNK A   3      -6.282 -50.744 -30.828  0.00  0.00    +0.000 Ca
BRANCH 113 114
ATOM    114  O   UNK A   3      -5.565 -51.352 -33.138  0.00  0.00    +0.000 OA
BRANCH 114 115
ATOM    115  C   UNK A   3      -5.314 -51.947 -34.209  0.00  0.00    +0.000 C 
ATOM    116  O   UNK A   3      -5.184 -51.353 -35.300  0.00  0.00    +0.000 OA
BRANCH 115 117
ATOM    117  C   UNK A   3      -5.178 -53.460 -34.197  0.00  0.00    +0.000 C 
BRANCH 117 118
ATOM    118  C   UNK A   3      -4.238 -53.968 -33.098  0.00  0.00    +0.000 C 
BRANCH 118 119
ATOM    119  C   UNK A   3      -2.798 -53.524 -33.352  0.00  0.00    +0.000 C 
ATOM    120  N   SER A   4      -2.422 -52.390 -32.764  0.00  0.00    +0.000 N 
ATOM    121  H   SER A   4      -3.134 -51.827 -32.257  0.00  0.00    +0.000 HD
ATOM    122  O   UNK A   3      -2.049 -54.201 -34.056  0.00  0.00    +0.000 OA
BRANCH 120 123
ATOM    123  CA  SER A   4      -1.045 -51.911 -32.807  0.00  0.00    +0.000 C 
BRANCH 123 124
ATOM    124  C   SER A   4      -0.111 -52.783 -31.988  0.00  0.00    +0.000 C 
ATOM    125  N   TRP A   5      -0.494 -53.040 -30.736  0.00  0.00    +0.000 N 
ATOM    126  H   TRP A   5      -1.417 -52.683 -30.415  0.00  0.00    +0.000 HD
ATOM    127  O   SER A   4       0.926 -53.226 -32.484  0.00  0.00    +0.000 OA
BRANCH 125 128
ATOM    128  CA  TRP A   5       0.329 -53.803 -29.794  0.00  0.00    +0.000 C 
BRANCH 128 129
ATOM    129  C   TRP A   5       0.581 -55.246 -30.221  0.00  0.00    +0.000 C 
ATOM    130  O   TRP A   5       1.664 -55.783 -29.979  0.00  0.00    +0.000 OA
ATOM    131  N   GLY A   6      -0.416 -55.865 -30.851  0.00  0.00    +0.000 N 
ATOM    132  H   GLY A   6      -1.279 -55.330 -31.075  0.00  0.00    +0.000 HD
BRANCH 131 133
ATOM    133  CA  GLY A   6      -0.336 -57.276 -31.239  0.00  0.00    +0.000 C 
BRANCH 133 134
ATOM    134  C   GLY A   6       0.740 -57.536 -32.306  0.00  0.00    +0.000 C 
ATOM    135  O   GLY A   6       1.322 -58.625 -32.356  0.00  0.00    +0.000 OA
ATOM    136  N   ALA A   7       1.013 -56.523 -33.127  0.00  0.00    +0.000 N 
ATOM    137  H   ALA A   7       0.503 -55.626 -32.998  0.00  0.00    +0.000 HD
BRANCH 136 138
ATOM    138  CA  ALA A   7       1.999 -56.620 -34.201  0.00  0.00    +0.000 C 
BRANCH 138 139
ATOM    139  C   ALA A   7       3.431 -56.805 -33.729  0.00  0.00    +0.000 C 
ATOM    140  N   THR A   8       3.691 -56.453 -32.469  0.00  0.00    +0.000 N 
ATOM    141  H   THR A   8       2.919 -56.063 -31.891  0.00  0.00    +0.000 HD
ATOM    142  O   ALA A   7       4.285 -57.257 -34.496  0.00  0.00    +0.000 OA
BRANCH 140 143
ATOM    143  CA  THR A   8       5.017 -56.593 -31.865  0.00  0.00    +0.000 C 
BRANCH 143 144
ATOM    144  C   THR A   8       5.477 -58.047 -31.798  0.00  0.00    +0.000 C 
ATOM    145  O   THR A   8       6.638 -58.349 -32.077  0.00  0.00    +0.000 OA
ENDBRANCH 143 144
BRANCH 143 146
ATOM    146  CB  THR A   8       5.034 -55.981 -30.458  0.00  0.00    +0.000 C 
BRANCH 146 147
ATOM    147  CG  THR A   8       5.261 -54.482 -30.427  0.00  0.00    +0.000 A 
ATOM    148  CD2 THR A   8       6.546 -53.957 -30.292  0.00  0.00    +0.000 A 
ATOM    149  CE2 THR A   8       6.762 -52.583 -30.260  0.00  0.00    +0.000 A 
ATOM    150  CZ  THR A   8       5.684 -51.716 -30.362  0.00  0.00    +0.000 A 
ATOM    151  CE1 THR A   8       4.396 -52.211 -30.494  0.00  0.00    +0.000 A 
ATOM    152  CD1 THR A   8       4.191 -53.590 -30.525  0.00  0.00    +0.000 A 
BRANCH 150 153
ATOM    153  OH  THR A   8       5.896 -50.356 -30.331  0.00  0.00    +0.000 OA
ATOM    154  HH  THR A   8       6.486 -50.098 -31.083  0.00  0.00    +0.000 HD
ENDBRANCH 150 153
ENDBRANCH 146 147
ENDBRANCH 143 146
ENDBRANCH 140 143
ENDBRANCH 138 139
ENDBRANCH 136 138
ENDBRANCH 133 134
BRANCH 133 155
ATOM    155  CB  GLY A   6      -1.727 -57.843 -31.667  0.00  0.00    +0.000 C 
ATOM    156  CG2 GLY A   6      -1.754 -59.365 -31.546  0.00  0.00    +0.000 C 
ATOM    157  CG1 GLY A   6      -2.114 -57.394 -33.080  0.00  0.00    +0.000 C 
ENDBRANCH 133 155
ENDBRANCH 131 133
ENDBRANCH 128 129
BRANCH 128 158
ATOM    158  CB  TRP A   5      -0.299 -53.787 -28.400  0.00  0.00    +0.000 C 
BRANCH 158 159
ATOM    159  O   TRP A   5      -0.338 -52.473 -27.876  0.00  0.00    +0.000 OA
ATOM    160  H   TRP A   5      -0.877 -51.896 -28.474  0.00  0.00    +0.000 HD
ENDBRANCH 158 159
ENDBRANCH 128 158
ENDBRANCH 125 128
ENDBRANCH 123 124
ENDBRANCH 120 123
ENDBRANCH 118 119
BRANCH 118 163
ATOM    161  C   ASN A   2      -4.155 -54.050 -30.657  0.00  0.00    +0.000 C 
ATOM    162  O   ASN A   2      -3.265 -54.905 -30.663  0.00  0.00    +0.000 OA
ATOM    163  N   UNK A   3      -4.701 -53.562 -31.770  0.00  0.00    +0.000 N 
ATOM    164  H   UNK A   3      -5.477 -52.874 -31.693  0.00  0.00    +0.000 HD
BRANCH 161 165
ATOM    165  CA  ASN A   2      -4.689 -53.503 -29.346  0.00  0.00    +0.000 C 
BRANCH 165 167
ATOM    166  C   ASN A   1      -5.178 -55.348 -27.831  0.00  0.00    +0.000 C 
ATOM    167  N   ASN A   2      -4.357 -54.384 -28.235  0.00  0.00    +0.000 N 
ATOM    168  H   ASN A   2      -3.450 -54.255 -27.743  0.00  0.00    +0.000 HD
ATOM    169  O   ASN A   1      -6.314 -55.498 -28.284  0.00  0.00    +0.000 OA
BRANCH 166 170
ATOM    170  CA  ASN A   1      -4.642 -56.274 -26.739  0.00  0.00    +0.000 C 
BRANCH 170 171
ATOM    171  CB  ASN A   1      -3.442 -57.112 -27.274  0.00  0.00    +0.000 C 
ATOM    172  CG2 ASN A   1      -3.855 -57.998 -28.451  0.00  0.00    +0.000 C 
BRANCH 171 173
ATOM    173  OG1 ASN A   1      -2.385 -56.237 -27.685  0.00  0.00    +0.000 OA
ATOM    174  HG1 ASN A   1      -1.626 -56.775 -28.024  0.00  0.00    +0.000 HD
ENDBRANCH 171 173
ENDBRANCH 170 171
BRANCH 170 175
ATOM    175  N   ASN A   1      -5.685 -57.135 -26.186  0.00  0.00    +0.000 NA
ATOM    176  H   ASN A   1      -6.273 -57.695 -26.836  0.00  0.00    +0.000 HD
ENDBRANCH 170 175
ENDBRANCH 166 170
ENDBRANCH 165 167
ENDBRANCH 161 165
ENDBRANCH 118 163
ENDBRANCH 117 118
ENDBRANCH 115 117
ENDBRANCH 114 115
ENDBRANCH 113 114
ENDBRANCH 112 113
ENDBRANCH 111 112
BRANCH 111 177
ATOM    177  C   UNK A   3      -9.361 -54.592 -30.137  0.00  0.00    +0.000 C 
BRANCH 177 178
ATOM    178  N   UNK A   3      -8.438 -55.719 -30.023  0.00  0.00    +0.000 N 
ATOM    179  H   UNK A   3      -7.640 -55.652 -29.359  0.00  0.00    +0.000 HD
ATOM    180  C   UNK A   3      -8.587 -56.829 -30.743  0.00  0.00    +0.000 C 
ATOM    181  O   UNK A   3      -9.555 -57.036 -31.477  0.00  0.00    +0.000 OA
BRANCH 180 182
ATOM    182  C   UNK A   3      -7.482 -57.870 -30.603  0.00  0.00    +0.000 C 
BRANCH 182 183
ATOM    183  C   UNK A   3      -6.808 -58.132 -31.973  0.00  0.00    +0.000 C 
ATOM    184  C   UNK A   3      -6.321 -56.824 -32.595  0.00  0.00    +0.000 C 
BRANCH 183 185
ATOM    185  C   UNK A   3      -5.647 -59.118 -31.813  0.00  0.00    +0.000 C 
ATOM    186  C   UNK A   3      -5.223 -59.795 -33.098  0.00  0.00    +0.000 C 
ENDBRANCH 183 185
ENDBRANCH 182 183
BRANCH 182 187
ATOM    187  N   UNK A   3      -8.023 -59.093 -30.030  0.00  0.00    +0.000 NA
ATOM    188  H   UNK A   3      -8.566 -59.739 -30.638  0.00  0.00    +0.000 HD
ENDBRANCH 182 187
ENDBRANCH 180 182
ENDBRANCH 177 178
BRANCH 177 189
ATOM    189  C   UNK A   3      -9.461 -53.819 -28.818  0.00  0.00    +0.000 C 
BRANCH 189 190
ATOM    190  C   UNK A   3     -10.068 -54.622 -27.674  0.00  0.00    +0.000 C 
BRANCH 190 191
ATOM    191  S   UNK A   3     -11.733 -55.229 -28.022  0.00  0.00    +0.000 S 
ATOM    192  C   UNK A   3     -12.055 -56.158 -26.531  0.00  0.00    +0.000 C 
ENDBRANCH 190 191
ENDBRANCH 189 190
ENDBRANCH 177 189
ENDBRANCH 111 177
ENDBRANCH 109 111
ENDBRANCH 108 109
BRANCH 108 193
ATOM    193  CB  ASN A   1      -9.162 -54.347 -34.875  0.00  0.00    +0.000 C 
BRANCH 193 194
ATOM    194  CG  ASN A   1      -8.387 -53.936 -36.117  0.00  0.00    +0.000 C 
ATOM    195  OD1 ASN A   1      -7.939 -52.796 -36.250  0.00  0.00    +0.000 OA
ATOM    196  ND2 ASN A   1      -8.233 -54.876 -37.044  0.00  0.00    +0.000 N 
ATOM    197 HD21 ASN A   1      -8.627 -55.826 -36.892  0.00  0.00    +0.000 HD
ATOM    198 HD22 ASN A   1      -7.718 -54.661 -37.922  0.00  0.00    +0.000 HD
ENDBRANCH 193 194
ENDBRANCH 108 193
ENDBRANCH 104 108
ENDBRANCH   1 105
BRANCH   1 199
ATOM    199  CB  ASN A   2      -9.748 -48.681 -32.802  0.00  0.00    +0.000 C 
BRANCH 199 200
ATOM    200  CG  ASN A   2      -8.431 -48.523 -32.055  0.00  0.00    +0.000 C 
ATOM    201  ND2 ASN A   2      -8.519 -48.332 -30.742  0.00  0.00    +0.000 N 
ATOM    202 HD21 ASN A   2      -7.656 -48.211 -30.175  0.00  0.00    +0.000 HD
ATOM    203 HD22 ASN A   2      -9.451 -48.303 -30.282  0.00  0.00    +0.000 HD
ATOM    204  OD1 ASN A   2      -7.352 -48.565 -32.646  0.00  0.00    +0.000 OA
ENDBRANCH 199 200
ENDBRANCH   1 199
TORSDOF 86
REMARK  Name = ../refined-set-2016/3iae/3iae_pocket.pdb
REMARK  283 active torsions:
REMARK  status: ('A' for Active; 'I' for Inactive)
REMARK    1  A    between atoms: _1  and  _3
REMARK    2  A    between atoms: _3  and  _4
REMARK    3  A    between atoms: _3  and  _6
REMARK    4  A    between atoms: _6  and  _7
REMARK    5  A    between atoms: _10  and  _12
REMARK    6  A    between atoms: _12  and  _13
REMARK    7  A    between atoms: _12  and  _15
REMARK    8  A    between atoms: _15  and  _16
REMARK    9  A    between atoms: _21  and  _22
REMARK   10  A    between atoms: _24  and  _26
REMARK   11  A    between atoms: _26  and  _27
REMARK   12  A    between atoms: _26  and  _29
REMARK   13  A    between atoms: _29  and  _30
REMARK   14  A    between atoms: _34  and  _35
REMARK   15  A    between atoms: _40  and  _42
REMARK   16  A    between atoms: _42  and  _43
REMARK   17  A    between atoms: _42  and  _45
REMARK   18  A    between atoms: _45  and  _46
REMARK   19  A    between atoms: _49  and  _51
REMARK   20  A    between atoms: _51  and  _52
REMARK   21  A    between atoms: _54  and  _56
REMARK   22  A    between atoms: _56  and  _57
REMARK   23  A    between atoms: _60  and  _62
REMARK   24  A    between atoms: _62  and  _63
REMARK   25  A    between atoms: _62  and  _65
REMARK   26  A    between atoms: _65  and  _66
REMARK   27  A    between atoms: _69  and  _71
REMARK   28  A    between atoms: _71  and  _72
REMARK   29  A    between atoms: _71  and  _74
REMARK   30  A    between atoms: _74  and  _75
REMARK   31  A    between atoms: _78  and  _80
REMARK   32  A    between atoms: _80  and  _81
REMARK   33  A    between atoms: _80  and  _83
REMARK   34  A    between atoms: _83  and  _84
REMARK   35  A    between atoms: _89  and  _90
REMARK   36  A    between atoms: _92  and  _94
REMARK   37  A    between atoms: _94  and  _95
REMARK   38  A    between atoms: _94  and  _97
REMARK   39  A    between atoms: _97  and  _98
REMARK   40  A    between atoms: _101  and  _103
REMARK   41  A    between atoms: _103  and  _104
REMARK   42  A    between atoms: _103  and  _106
REMARK   43  A    between atoms: _106  and  _107
REMARK   44  A    between atoms: _117  and  _119
REMARK   45  A    between atoms: _119  and  _120
REMARK   46  A    between atoms: _119  and  _122
REMARK   47  A    between atoms: _122  and  _123
REMARK   48  A    between atoms: _126  and  _128
REMARK   49  A    between atoms: _128  and  _129
REMARK   50  A    between atoms: _128  and  _131
REMARK   51  A    between atoms: _131  and  _132
REMARK   52  A    between atoms: _137  and  _139
REMARK   53  A    between atoms: _139  and  _140
REMARK   54  A    between atoms: _142  and  _144
REMARK   55  A    between atoms: _144  and  _145
REMARK   56  A    between atoms: _144  and  _147
REMARK   57  A    between atoms: _147  and  _148
REMARK   58  A    between atoms: _153  and  _154
REMARK   59  A    between atoms: _156  and  _158
REMARK   60  A    between atoms: _158  and  _159
REMARK   61  A    between atoms: _158  and  _161
REMARK   62  A    between atoms: _161  and  _162
REMARK   63  A    between atoms: _165  and  _167
REMARK   64  A    between atoms: _167  and  _168
REMARK   65  A    between atoms: _170  and  _172
REMARK   66  A    between atoms: _172  and  _173
REMARK   67  A    between atoms: _172  and  _175
REMARK   68  A    between atoms: _175  and  _176
REMARK   69  A    between atoms: _178  and  _180
REMARK   70  A    between atoms: _180  and  _181
REMARK   71  A    between atoms: _180  and  _183
REMARK   72  A    between atoms: _183  and  _184
REMARK   73  A    between atoms: _184  and  _185
REMARK   74  A    between atoms: _187  and  _189
REMARK   75  A    between atoms: _189  and  _190
REMARK   76  A    between atoms: _192  and  _194
REMARK   77  A    between atoms: _194  and  _195
REMARK   78  A    between atoms: _194  and  _197
REMARK   79  A    between atoms: _200  and  _202
REMARK   80  A    between atoms: _202  and  _203
REMARK   81  A    between atoms: _202  and  _205
REMARK   82  A    between atoms: _205  and  _206
REMARK   83  A    between atoms: _209  and  _211
REMARK   84  A    between atoms: _211  and  _212
REMARK   85  A    between atoms: _214  and  _216
REMARK   86  A    between atoms: _216  and  _217
REMARK   87  A    between atoms: _216  and  _219
REMARK   88  A    between atoms: _219  and  _220
REMARK   89  A    between atoms: _220  and  _221
REMARK   90  A    between atoms: _221  and  CA_702
REMARK   91  A    between atoms: _223  and  _225
REMARK   92  A    between atoms: _225  and  _226
REMARK   93  A    between atoms: _228  and  _230
REMARK   94  A    between atoms: _230  and  _231
REMARK   95  A    between atoms: _230  and  _233
REMARK   96  A    between atoms: _233  and  _234
REMARK   97  A    between atoms: _236  and  _238
REMARK   98  A    between atoms: _238  and  _239
REMARK   99  A    between atoms: _238  and  _241
REMARK  100  A    between atoms: _244  and  _246
REMARK  101  A    between atoms: _246  and  _247
REMARK  102  A    between atoms: _249  and  _251
REMARK  103  A    between atoms: _251  and  _252
REMARK  104  A    between atoms: _251  and  _254
REMARK  105  A    between atoms: _254  and  _255
REMARK  106  A    between atoms: _260  and  _261
REMARK  107  A    between atoms: _263  and  _265
REMARK  108  A    between atoms: _265  and  _266
REMARK  109  A    between atoms: _265  and  _268
REMARK  110  A    between atoms: _268  and  _269
REMARK  111  A    between atoms: _272  and  _274
REMARK  112  A    between atoms: _274  and  _275
REMARK  113  A    between atoms: _274  and  _277
REMARK  114  A    between atoms: _275  and  _276
REMARK  115  A    between atoms: _275  and  _281
REMARK  116  A    between atoms: _276  and  CA_702
REMARK  117  A    between atoms: _277  and  _278
REMARK  118  A    between atoms: _278  and  _279
REMARK  119  A    between atoms: _281  and  _283
REMARK  120  A    between atoms: _283  and  _284
REMARK  121  A    between atoms: _283  and  _286
REMARK  122  A    between atoms: _286  and  _287
REMARK  123  A    between atoms: _292  and  _294
REMARK  124  A    between atoms: _294  and  _295
REMARK  125  A    between atoms: _294  and  _297
REMARK  126  A    between atoms: _297  and  _298
REMARK  127  A    between atoms: _303  and  _305
REMARK  128  A    between atoms: _305  and  _306
REMARK  129  A    between atoms: _305  and  _308
REMARK  130  A    between atoms: _308  and  _309
REMARK  131  A    between atoms: _309  and  _310
REMARK  132  A    between atoms: _315  and  _317
REMARK  133  A    between atoms: _317  and  _318
REMARK  134  A    between atoms: _317  and  _320
REMARK  135  A    between atoms: _320  and  _321
REMARK  136  A    between atoms: _323  and  _325
REMARK  137  A    between atoms: _325  and  _326
REMARK  138  A    between atoms: _325  and  _328
REMARK  139  A    between atoms: _328  and  _329
REMARK  140  A    between atoms: _339  and  _341
REMARK  141  A    between atoms: _341  and  _342
REMARK  142  A    between atoms: _344  and  _346
REMARK  143  A    between atoms: _346  and  _347
REMARK  144  A    between atoms: _350  and  _352
REMARK  145  A    between atoms: _352  and  _353
REMARK  146  A    between atoms: _352  and  _355
REMARK  147  A    between atoms: _355  and  _356
REMARK  148  A    between atoms: _359  and  _361
REMARK  149  A    between atoms: _361  and  _362
REMARK  150  A    between atoms: _361  and  _364
REMARK  151  A    between atoms: _364  and  _365
REMARK  152  A    between atoms: _368  and  _370
REMARK  153  A    between atoms: _370  and  _371
REMARK  154  A    between atoms: _370  and  _373
REMARK  155  A    between atoms: _373  and  _374
REMARK  156  A    between atoms: _379  and  _381
REMARK  157  A    between atoms: _381  and  _382
REMARK  158  A    between atoms: _381  and  _384
REMARK  159  A    between atoms: _384  and  _385
REMARK  160  A    between atoms: _391  and  _393
REMARK  161  A    between atoms: _393  and  _394
REMARK  162  A    between atoms: _393  and  _396
REMARK  163  A    between atoms: _396  and  _397
REMARK  164  A    between atoms: _397  and  _398
REMARK  165  A    between atoms: _403  and  _405
REMARK  166  A    between atoms: _405  and  _406
REMARK  167  A    between atoms: _408  and  _410
REMARK  168  A    between atoms: _410  and  _411
REMARK  169  A    between atoms: _410  and  _413
REMARK  170  A    between atoms: _413  and  _414
REMARK  171  A    between atoms: _417  and  _419
REMARK  172  A    between atoms: _419  and  _420
REMARK  173  A    between atoms: _419  and  _422
REMARK  174  A    between atoms: _422  and  _423
REMARK  175  A    between atoms: _426  and  _428
REMARK  176  A    between atoms: _428  and  _429
REMARK  177  A    between atoms: _428  and  _431
REMARK  178  A    between atoms: _431  and  _432
REMARK  179  A    between atoms: _437  and  _438
REMARK  180  A    between atoms: _440  and  _442
REMARK  181  A    between atoms: _442  and  _443
REMARK  182  A    between atoms: _442  and  _445
REMARK  183  A    between atoms: _448  and  _450
REMARK  184  A    between atoms: _450  and  _451
REMARK  185  A    between atoms: _454  and  _456
REMARK  186  A    between atoms: _456  and  _457
REMARK  187  A    between atoms: _456  and  _459
REMARK  188  A    between atoms: _459  and  _460
REMARK  189  A    between atoms: _463  and  _465
REMARK  190  A    between atoms: _465  and  _466
REMARK  191  A    between atoms: _465  and  _468
REMARK  192  A    between atoms: _468  and  _469
REMARK  193  A    between atoms: _469  and  _470
REMARK  194  A    between atoms: _473  and  _475
REMARK  195  A    between atoms: _475  and  _476
REMARK  196  A    between atoms: _475  and  _478
REMARK  197  A    between atoms: _478  and  _479
REMARK  198  A    between atoms: _479  and  _480
REMARK  199  A    between atoms: _483  and  _485
REMARK  200  A    between atoms: _485  and  _486
REMARK  201  A    between atoms: _485  and  _488
REMARK  202  A    between atoms: _488  and  _489
REMARK  203  A    between atoms: _492  and  _494
REMARK  204  A    between atoms: _494  and  _495
REMARK  205  A    between atoms: _494  and  _497
REMARK  206  A    between atoms: _497  and  _498
REMARK  207  A    between atoms: _503  and  _505
REMARK  208  A    between atoms: _505  and  _506
REMARK  209  A    between atoms: _508  and  _510
REMARK  210  A    between atoms: _510  and  _511
REMARK  211  A    between atoms: _510  and  _513
REMARK  212  A    between atoms: _513  and  _514
REMARK  213  A    between atoms: _516  and  _518
REMARK  214  A    between atoms: _518  and  _519
REMARK  215  A    between atoms: _518  and  _521
REMARK  216  A    between atoms: _521  and  _522
REMARK  217  A    between atoms: _527  and  _529
REMARK  218  A    between atoms: _529  and  _530
REMARK  219  A    between atoms: _529  and  _532
REMARK  220  A    between atoms: _532  and  _533
REMARK  221  A    between atoms: _536  and  _538
REMARK  222  A    between atoms: _538  and  _539
REMARK  223  A    between atoms: _538  and  _541
REMARK  224  A    between atoms: _541  and  _542
REMARK  225  A    between atoms: _545  and  _547
REMARK  226  A    between atoms: _547  and  _548
REMARK  227  A    between atoms: _547  and  _550
REMARK  228  A    between atoms: _550  and  _551
REMARK  229  A    between atoms: _551  and  _552
REMARK  230  A    between atoms: _552  and  _553
REMARK  231  A    between atoms: _562  and  _564
REMARK  232  A    between atoms: _564  and  _565
REMARK  233  A    between atoms: _564  and  _567
REMARK  234  A    between atoms: _567  and  _568
REMARK  235  A    between atoms: _573  and  _575
REMARK  236  A    between atoms: _575  and  _576
REMARK  237  A    between atoms: _575  and  _578
REMARK  238  A    between atoms: _578  and  _579
REMARK  239  A    between atoms: _579  and  _580
REMARK  240  A    between atoms: _583  and  _585
REMARK  241  A    between atoms: _585  and  _586
REMARK  242  A    between atoms: _589  and  _591
REMARK  243  A    between atoms: _591  and  _592
REMARK  244  A    between atoms: _591  and  _594
REMARK  245  A    between atoms: _597  and  _599
REMARK  246  A    between atoms: _599  and  _600
REMARK  247  A    between atoms: _599  and  _602
REMARK  248  A    between atoms: _602  and  _603
REMARK  249  A    between atoms: _606  and  _608
REMARK  250  A    between atoms: _608  and  _609
REMARK  251  A    between atoms: _612  and  _614
REMARK  252  A    between atoms: _614  and  _615
REMARK  253  A    between atoms: _617  and  _619
REMARK  254  A    between atoms: _619  and  _620
REMARK  255  A    between atoms: _622  and  _624
REMARK  256  A    between atoms: _624  and  _625
REMARK  257  A    between atoms: _627  and  _629
REMARK  258  A    between atoms: _629  and  _630
REMARK  259  A    between atoms: _629  and  _632
REMARK  260  A    between atoms: _632  and  _633
REMARK  261  A    between atoms: _639  and  _641
REMARK  262  A    between atoms: _641  and  _642
REMARK  263  A    between atoms: _641  and  _644
REMARK  264  A    between atoms: _644  and  _645
REMARK  265  A    between atoms: _648  and  _650
REMARK  266  A    between atoms: _650  and  _651
REMARK  267  A    between atoms: _650  and  _653
REMARK  268  A    between atoms: _653  and  _654
REMARK  269  A    between atoms: _659  and  _661
REMARK  270  A    between atoms: _661  and  _662
REMARK  271  A    between atoms: _665  and  _667
REMARK  272  A    between atoms: _667  and  _668
REMARK  273  A    between atoms: _667  and  _670
REMARK  274  A    between atoms: _670  and  _671
REMARK  275  A    between atoms: _674  and  _676
REMARK  276  A    between atoms: _676  and  _677
REMARK  277  A    between atoms: _676  and  _679
REMARK  278  A    between atoms: _679  and  _680
REMARK  279  A    between atoms: _680  and  _681
REMARK  280  A    between atoms: _686  and  _688
REMARK  281  A    between atoms: _688  and  _689
REMARK  282  A    between atoms: _688  and  _691
REMARK  283  A    between atoms: _691  and  _692
REMARK                            x       y       z     vdW  Elec       q    Type
REMARK                         _______ _______ _______ _____ _____    ______ ____
ROOT
ATOM      1  C   GLY A   1       1.180 -42.806 -37.155  0.00  0.00    +0.240 C 
ATOM      2  O   GLY A   1       1.782 -43.693 -36.549  0.00  0.00    -0.274 OA
ATOM      3  N   THR A   2      -0.103 -42.525 -36.940  0.00  0.00    -0.296 N 
ATOM      4  H   THR A   2      -0.569 -41.804 -37.526  0.00  0.00    +0.150 HD
ENDROOT
BRANCH   1   5
ATOM      5  CA  GLY A   1       1.893 -41.980 -38.210  0.00  0.00    +0.169 C 
BRANCH   5   6
ATOM      6  N   GLY A   1       1.142 -40.835 -38.722  0.00  0.00    -0.236 NA
ATOM      7  H   GLY A   1       0.747 -40.889 -39.682  0.00  0.00    +0.142 HD
ENDBRANCH   5   6
ENDBRANCH   1   5
BRANCH   3   8
ATOM      8  CA  THR A   2      -0.874 -43.205 -35.900  0.00  0.00    +0.164 C 
BRANCH   8   9
ATOM      9  CB  THR A   2      -1.444 -42.210 -34.864  0.00  0.00    +0.136 C 
ATOM     10  CG2 THR A   2      -0.333 -41.650 -33.994  0.00  0.00    +0.034 C 
BRANCH   9  11
ATOM     11  OG1 THR A   2      -2.114 -41.139 -35.541  0.00  0.00    -0.382 OA
ATOM     12  HG1 THR A   2      -2.477 -40.504 -34.874  0.00  0.00    +0.210 HD
ENDBRANCH   9  11
ENDBRANCH   8   9
BRANCH   8  13
ATOM     13  C   THR A   2      -2.009 -44.069 -36.446  0.00  0.00    +0.229 C 
ATOM     14  O   THR A   2      -2.693 -44.748 -35.682  0.00  0.00    -0.286 OA
ENDBRANCH   8  13
ENDBRANCH   3   8
TORSDOF 6
REMARK  Name = ../refined-set-2016/3iae/3iae_pocket.pdb
REMARK  283 active torsions:
REMARK  status: ('A' for Active; 'I' for Inactive)
REMARK    1  A    between atoms: _1  and  _3
REMARK    2  A    between atoms: _3  and  _4
REMARK    3  A    between atoms: _3  and  _6
REMARK    4  A    between atoms: _6  and  _7
REMARK    5  A    between atoms: _10  and  _12
REMARK    6  A    between atoms: _12  and  _13
REMARK    7  A    between atoms: _12  and  _15
REMARK    8  A    between atoms: _15  and  _16
REMARK    9  A    between atoms: _21  and  _22
REMARK   10  A    between atoms: _24  and  _26
REMARK   11  A    between atoms: _26  and  _27
REMARK   12  A    between atoms: _26  and  _29
REMARK   13  A    between atoms: _29  and  _30
REMARK   14  A    between atoms: _34  and  _35
REMARK   15  A    between atoms: _40  and  _42
REMARK   16  A    between atoms: _42  and  _43
REMARK   17  A    between atoms: _42  and  _45
REMARK   18  A    between atoms: _45  and  _46
REMARK   19  A    between atoms: _49  and  _51
REMARK   20  A    between atoms: _51  and  _52
REMARK   21  A    between atoms: _54  and  _56
REMARK   22  A    between atoms: _56  and  _57
REMARK   23  A    between atoms: _60  and  _62
REMARK   24  A    between atoms: _62  and  _63
REMARK   25  A    between atoms: _62  and  _65
REMARK   26  A    between atoms: _65  and  _66
REMARK   27  A    between atoms: _69  and  _71
REMARK   28  A    between atoms: _71  and  _72
REMARK   29  A    between atoms: _71  and  _74
REMARK   30  A    between atoms: _74  and  _75
REMARK   31  A    between atoms: _78  and  _80
REMARK   32  A    between atoms: _80  and  _81
REMARK   33  A    between atoms: _80  and  _83
REMARK   34  A    between atoms: _83  and  _84
REMARK   35  A    between atoms: _89  and  _90
REMARK   36  A    between atoms: _92  and  _94
REMARK   37  A    between atoms: _94  and  _95
REMARK   38  A    between atoms: _94  and  _97
REMARK   39  A    between atoms: _97  and  _98
REMARK   40  A    between atoms: _101  and  _103
REMARK   41  A    between atoms: _103  and  _104
REMARK   42  A    between atoms: _103  and  _106
REMARK   43  A    between atoms: _106  and  _107
REMARK   44  A    between atoms: _117  and  _119
REMARK   45  A    between atoms: _119  and  _120
REMARK   46  A    between atoms: _119  and  _122
REMARK   47  A    between atoms: _122  and  _123
REMARK   48  A    between atoms: _126  and  _128
REMARK   49  A    between atoms: _128  and  _129
REMARK   50  A    between atoms: _128  and  _131
REMARK   51  A    between atoms: _131  and  _132
REMARK   52  A    between atoms: _137  and  _139
REMARK   53  A    between atoms: _139  and  _140
REMARK   54  A    between atoms: _142  and  _144
REMARK   55  A    between atoms: _144  and  _145
REMARK   56  A    between atoms: _144  and  _147
REMARK   57  A    between atoms: _147  and  _148
REMARK   58  A    between atoms: _153  and  _154
REMARK   59  A    between atoms: _156  and  _158
REMARK   60  A    between atoms: _158  and  _159
REMARK   61  A    between atoms: _158  and  _161
REMARK   62  A    between atoms: _161  and  _162
REMARK   63  A    between atoms: _165  and  _167
REMARK   64  A    between atoms: _167  and  _168
REMARK   65  A    between atoms: _170  and  _172
REMARK   66  A    between atoms: _172  and  _173
REMARK   67  A    between atoms: _172  and  _175
REMARK   68  A    between atoms: _175  and  _176
REMARK   69  A    between atoms: _178  and  _180
REMARK   70  A    between atoms: _180  and  _181
REMARK   71  A    between atoms: _180  and  _183
REMARK   72  A    between atoms: _183  and  _184
REMARK   73  A    between atoms: _184  and  _185
REMARK   74  A    between atoms: _187  and  _189
REMARK   75  A    between atoms: _189  and  _190
REMARK   76  A    between atoms: _192  and  _194
REMARK   77  A    between atoms: _194  and  _195
REMARK   78  A    between atoms: _194  and  _197
REMARK   79  A    between atoms: _200  and  _202
REMARK   80  A    between atoms: _202  and  _203
REMARK   81  A    between atoms: _202  and  _205
REMARK   82  A    between atoms: _205  and  _206
REMARK   83  A    between atoms: _209  and  _211
REMARK   84  A    between atoms: _211  and  _212
REMARK   85  A    between atoms: _214  and  _216
REMARK   86  A    between atoms: _216  and  _217
REMARK   87  A    between atoms: _216  and  _219
REMARK   88  A    between atoms: _219  and  _220
REMARK   89  A    between atoms: _220  and  _221
REMARK   90  A    between atoms: _221  and  CA_702
REMARK   91  A    between atoms: _223  and  _225
REMARK   92  A    between atoms: _225  and  _226
REMARK   93  A    between atoms: _228  and  _230
REMARK   94  A    between atoms: _230  and  _231
REMARK   95  A    between atoms: _230  and  _233
REMARK   96  A    between atoms: _233  and  _234
REMARK   97  A    between atoms: _236  and  _238
REMARK   98  A    between atoms: _238  and  _239
REMARK   99  A    between atoms: _238  and  _241
REMARK  100  A    between atoms: _244  and  _246
REMARK  101  A    between atoms: _246  and  _247
REMARK  102  A    between atoms: _249  and  _251
REMARK  103  A    between atoms: _251  and  _252
REMARK  104  A    between atoms: _251  and  _254
REMARK  105  A    between atoms: _254  and  _255
REMARK  106  A    between atoms: _260  and  _261
REMARK  107  A    between atoms: _263  and  _265
REMARK  108  A    between atoms: _265  and  _266
REMARK  109  A    between atoms: _265  and  _268
REMARK  110  A    between atoms: _268  and  _269
REMARK  111  A    between atoms: _272  and  _274
REMARK  112  A    between atoms: _274  and  _275
REMARK  113  A    between atoms: _274  and  _277
REMARK  114  A    between atoms: _275  and  _276
REMARK  115  A    between atoms: _275  and  _281
REMARK  116  A    between atoms: _276  and  CA_702
REMARK  117  A    between atoms: _277  and  _278
REMARK  118  A    between atoms: _278  and  _279
REMARK  119  A    between atoms: _281  and  _283
REMARK  120  A    between atoms: _283  and  _284
REMARK  121  A    between atoms: _283  and  _286
REMARK  122  A    between atoms: _286  and  _287
REMARK  123  A    between atoms: _292  and  _294
REMARK  124  A    between atoms: _294  and  _295
REMARK  125  A    between atoms: _294  and  _297
REMARK  126  A    between atoms: _297  and  _298
REMARK  127  A    between atoms: _303  and  _305
REMARK  128  A    between atoms: _305  and  _306
REMARK  129  A    between atoms: _305  and  _308
REMARK  130  A    between atoms: _308  and  _309
REMARK  131  A    between atoms: _309  and  _310
REMARK  132  A    between atoms: _315  and  _317
REMARK  133  A    between atoms: _317  and  _318
REMARK  134  A    between atoms: _317  and  _320
REMARK  135  A    between atoms: _320  and  _321
REMARK  136  A    between atoms: _323  and  _325
REMARK  137  A    between atoms: _325  and  _326
REMARK  138  A    between atoms: _325  and  _328
REMARK  139  A    between atoms: _328  and  _329
REMARK  140  A    between atoms: _339  and  _341
REMARK  141  A    between atoms: _341  and  _342
REMARK  142  A    between atoms: _344  and  _346
REMARK  143  A    between atoms: _346  and  _347
REMARK  144  A    between atoms: _350  and  _352
REMARK  145  A    between atoms: _352  and  _353
REMARK  146  A    between atoms: _352  and  _355
REMARK  147  A    between atoms: _355  and  _356
REMARK  148  A    between atoms: _359  and  _361
REMARK  149  A    between atoms: _361  and  _362
REMARK  150  A    between atoms: _361  and  _364
REMARK  151  A    between atoms: _364  and  _365
REMARK  152  A    between atoms: _368  and  _370
REMARK  153  A    between atoms: _370  and  _371
REMARK  154  A    between atoms: _370  and  _373
REMARK  155  A    between atoms: _373  and  _374
REMARK  156  A    between atoms: _379  and  _381
REMARK  157  A    between atoms: _381  and  _382
REMARK  158  A    between atoms: _381  and  _384
REMARK  159  A    between atoms: _384  and  _385
REMARK  160  A    between atoms: _391  and  _393
REMARK  161  A    between atoms: _393  and  _394
REMARK  162  A    between atoms: _393  and  _396
REMARK  163  A    between atoms: _396  and  _397
REMARK  164  A    between atoms: _397  and  _398
REMARK  165  A    between atoms: _403  and  _405
REMARK  166  A    between atoms: _405  and  _406
REMARK  167  A    between atoms: _408  and  _410
REMARK  168  A    between atoms: _410  and  _411
REMARK  169  A    between atoms: _410  and  _413
REMARK  170  A    between atoms: _413  and  _414
REMARK  171  A    between atoms: _417  and  _419
REMARK  172  A    between atoms: _419  and  _420
REMARK  173  A    between atoms: _419  and  _422
REMARK  174  A    between atoms: _422  and  _423
REMARK  175  A    between atoms: _426  and  _428
REMARK  176  A    between atoms: _428  and  _429
REMARK  177  A    between atoms: _428  and  _431
REMARK  178  A    between atoms: _431  and  _432
REMARK  179  A    between atoms: _437  and  _438
REMARK  180  A    between atoms: _440  and  _442
REMARK  181  A    between atoms: _442  and  _443
REMARK  182  A    between atoms: _442  and  _445
REMARK  183  A    between atoms: _448  and  _450
REMARK  184  A    between atoms: _450  and  _451
REMARK  185  A    between atoms: _454  and  _456
REMARK  186  A    between atoms: _456  and  _457
REMARK  187  A    between atoms: _456  and  _459
REMARK  188  A    between atoms: _459  and  _460
REMARK  189  A    between atoms: _463  and  _465
REMARK  190  A    between atoms: _465  and  _466
REMARK  191  A    between atoms: _465  and  _468
REMARK  192  A    between atoms: _468  and  _469
REMARK  193  A    between atoms: _469  and  _470
REMARK  194  A    between atoms: _473  and  _475
REMARK  195  A    between atoms: _475  and  _476
REMARK  196  A    between atoms: _475  and  _478
REMARK  197  A    between atoms: _478  and  _479
REMARK  198  A    between atoms: _479  and  _480
REMARK  199  A    between atoms: _483  and  _485
REMARK  200  A    between atoms: _485  and  _486
REMARK  201  A    between atoms: _485  and  _488
REMARK  202  A    between atoms: _488  and  _489
REMARK  203  A    between atoms: _492  and  _494
REMARK  204  A    between atoms: _494  and  _495
REMARK  205  A    between atoms: _494  and  _497
REMARK  206  A    between atoms: _497  and  _498
REMARK  207  A    between atoms: _503  and  _505
REMARK  208  A    between atoms: _505  and  _506
REMARK  209  A    between atoms: _508  and  _510
REMARK  210  A    between atoms: _510  and  _511
REMARK  211  A    between atoms: _510  and  _513
REMARK  212  A    between atoms: _513  and  _514
REMARK  213  A    between atoms: _516  and  _518
REMARK  214  A    between atoms: _518  and  _519
REMARK  215  A    between atoms: _518  and  _521
REMARK  216  A    between atoms: _521  and  _522
REMARK  217  A    between atoms: _527  and  _529
REMARK  218  A    between atoms: _529  and  _530
REMARK  219  A    between atoms: _529  and  _532
REMARK  220  A    between atoms: _532  and  _533
REMARK  221  A    between atoms: _536  and  _538
REMARK  222  A    between atoms: _538  and  _539
REMARK  223  A    between atoms: _538  and  _541
REMARK  224  A    between atoms: _541  and  _542
REMARK  225  A    between atoms: _545  and  _547
REMARK  226  A    between atoms: _547  and  _548
REMARK  227  A    between atoms: _547  and  _550
REMARK  228  A    between atoms: _550  and  _551
REMARK  229  A    between atoms: _551  and  _552
REMARK  230  A    between atoms: _552  and  _553
REMARK  231  A    between atoms: _562  and  _564
REMARK  232  A    between atoms: _564  and  _565
REMARK  233  A    between atoms: _564  and  _567
REMARK  234  A    between atoms: _567  and  _568
REMARK  235  A    between atoms: _573  and  _575
REMARK  236  A    between atoms: _575  and  _576
REMARK  237  A    between atoms: _575  and  _578
REMARK  238  A    between atoms: _578  and  _579
REMARK  239  A    between atoms: _579  and  _580
REMARK  240  A    between atoms: _583  and  _585
REMARK  241  A    between atoms: _585  and  _586
REMARK  242  A    between atoms: _589  and  _591
REMARK  243  A    between atoms: _591  and  _592
REMARK  244  A    between atoms: _591  and  _594
REMARK  245  A    between atoms: _597  and  _599
REMARK  246  A    between atoms: _599  and  _600
REMARK  247  A    between atoms: _599  and  _602
REMARK  248  A    between atoms: _602  and  _603
REMARK  249  A    between atoms: _606  and  _608
REMARK  250  A    between atoms: _608  and  _609
REMARK  251  A    between atoms: _612  and  _614
REMARK  252  A    between atoms: _614  and  _615
REMARK  253  A    between atoms: _617  and  _619
REMARK  254  A    between atoms: _619  and  _620
REMARK  255  A    between atoms: _622  and  _624
REMARK  256  A    between atoms: _624  and  _625
REMARK  257  A    between atoms: _627  and  _629
REMARK  258  A    between atoms: _629  and  _630
REMARK  259  A    between atoms: _629  and  _632
REMARK  260  A    between atoms: _632  and  _633
REMARK  261  A    between atoms: _639  and  _641
REMARK  262  A    between atoms: _641  and  _642
REMARK  263  A    between atoms: _641  and  _644
REMARK  264  A    between atoms: _644  and  _645
REMARK  265  A    between atoms: _648  and  _650
REMARK  266  A    between atoms: _650  and  _651
REMARK  267  A    between atoms: _650  and  _653
REMARK  268  A    between atoms: _653  and  _654
REMARK  269  A    between atoms: _659  and  _661
REMARK  270  A    between atoms: _661  and  _662
REMARK  271  A    between atoms: _665  and  _667
REMARK  272  A    between atoms: _667  and  _668
REMARK  273  A    between atoms: _667  and  _670
REMARK  274  A    between atoms: _670  and  _671
REMARK  275  A    between atoms: _674  and  _676
REMARK  276  A    between atoms: _676  and  _677
REMARK  277  A    between atoms: _676  and  _679
REMARK  278  A    between atoms: _679  and  _680
REMARK  279  A    between atoms: _680  and  _681
REMARK  280  A    between atoms: _686  and  _688
REMARK  281  A    between atoms: _688  and  _689
REMARK  282  A    between atoms: _688  and  _691
REMARK  283  A    between atoms: _691  and  _692
REMARK                            x       y       z     vdW  Elec       q    Type
REMARK                         _______ _______ _______ _____ _____    ______ ____
ROOT
ATOM      1  CA  LEU A   1      -3.117 -48.603 -39.140  0.00  0.00    +0.133 C 
ENDROOT
BRANCH   1   2
ATOM      2  N   LEU A   1      -3.493 -47.250 -38.719  0.00  0.00    -0.239 NA
ATOM      3  H   LEU A   1      -4.425 -47.105 -38.281  0.00  0.00    +0.142 HD
ENDBRANCH   1   2
BRANCH   1   4
ATOM      4  C   LEU A   1      -4.277 -49.278 -39.876  0.00  0.00    +0.224 C 
ATOM      5  O   LEU A   1      -4.878 -50.236 -39.379  0.00  0.00    -0.287 OA
ENDBRANCH   1   4
BRANCH   1   6
ATOM      6  CB  LEU A   1      -2.683 -49.449 -37.935  0.00  0.00    +0.025 C 
BRANCH   6   7
ATOM      7  CG  LEU A   1      -1.437 -49.050 -37.136  0.00  0.00    +0.002 C 
ATOM      8  CD2 LEU A   1      -1.450 -49.729 -35.780  0.00  0.00    +0.000 C 
ATOM      9  CD1 LEU A   1      -0.156 -49.378 -37.892  0.00  0.00    +0.000 C 
ENDBRANCH   6   7
ENDBRANCH   1   6
TORSDOF 4
REMARK  Name = ../refined-set-2016/3iae/3iae_pocket.pdb
REMARK  283 active torsions:
REMARK  status: ('A' for Active; 'I' for Inactive)
REMARK    1  A    between atoms: _1  and  _3
REMARK    2  A    between atoms: _3  and  _4
REMARK    3  A    between atoms: _3  and  _6
REMARK    4  A    between atoms: _6  and  _7
REMARK    5  A    between atoms: _10  and  _12
REMARK    6  A    between atoms: _12  and  _13
REMARK    7  A    between atoms: _12  and  _15
REMARK    8  A    between atoms: _15  and  _16
REMARK    9  A    between atoms: _21  and  _22
REMARK   10  A    between atoms: _24  and  _26
REMARK   11  A    between atoms: _26  and  _27
REMARK   12  A    between atoms: _26  and  _29
REMARK   13  A    between atoms: _29  and  _30
REMARK   14  A    between atoms: _34  and  _35
REMARK   15  A    between atoms: _40  and  _42
REMARK   16  A    between atoms: _42  and  _43
REMARK   17  A    between atoms: _42  and  _45
REMARK   18  A    between atoms: _45  and  _46
REMARK   19  A    between atoms: _49  and  _51
REMARK   20  A    between atoms: _51  and  _52
REMARK   21  A    between atoms: _54  and  _56
REMARK   22  A    between atoms: _56  and  _57
REMARK   23  A    between atoms: _60  and  _62
REMARK   24  A    between atoms: _62  and  _63
REMARK   25  A    between atoms: _62  and  _65
REMARK   26  A    between atoms: _65  and  _66
REMARK   27  A    between atoms: _69  and  _71
REMARK   28  A    between atoms: _71  and  _72
REMARK   29  A    between atoms: _71  and  _74
REMARK   30  A    between atoms: _74  and  _75
REMARK   31  A    between atoms: _78  and  _80
REMARK   32  A    between atoms: _80  and  _81
REMARK   33  A    between atoms: _80  and  _83
REMARK   34  A    between atoms: _83  and  _84
REMARK   35  A    between atoms: _89  and  _90
REMARK   36  A    between atoms: _92  and  _94
REMARK   37  A    between atoms: _94  and  _95
REMARK   38  A    between atoms: _94  and  _97
REMARK   39  A    between atoms: _97  and  _98
REMARK   40  A    between atoms: _101  and  _103
REMARK   41  A    between atoms: _103  and  _104
REMARK   42  A    between atoms: _103  and  _106
REMARK   43  A    between atoms: _106  and  _107
REMARK   44  A    between atoms: _117  and  _119
REMARK   45  A    between atoms: _119  and  _120
REMARK   46  A    between atoms: _119  and  _122
REMARK   47  A    between atoms: _122  and  _123
REMARK   48  A    between atoms: _126  and  _128
REMARK   49  A    between atoms: _128  and  _129
REMARK   50  A    between atoms: _128  and  _131
REMARK   51  A    between atoms: _131  and  _132
REMARK   52  A    between atoms: _137  and  _139
REMARK   53  A    between atoms: _139  and  _140
REMARK   54  A    between atoms: _142  and  _144
REMARK   55  A    between atoms: _144  and  _145
REMARK   56  A    between atoms: _144  and  _147
REMARK   57  A    between atoms: _147  and  _148
REMARK   58  A    between atoms: _153  and  _154
REMARK   59  A    between atoms: _156  and  _158
REMARK   60  A    between atoms: _158  and  _159
REMARK   61  A    between atoms: _158  and  _161
REMARK   62  A    between atoms: _161  and  _162
REMARK   63  A    between atoms: _165  and  _167
REMARK   64  A    between atoms: _167  and  _168
REMARK   65  A    between atoms: _170  and  _172
REMARK   66  A    between atoms: _172  and  _173
REMARK   67  A    between atoms: _172  and  _175
REMARK   68  A    between atoms: _175  and  _176
REMARK   69  A    between atoms: _178  and  _180
REMARK   70  A    between atoms: _180  and  _181
REMARK   71  A    between atoms: _180  and  _183
REMARK   72  A    between atoms: _183  and  _184
REMARK   73  A    between atoms: _184  and  _185
REMARK   74  A    between atoms: _187  and  _189
REMARK   75  A    between atoms: _189  and  _190
REMARK   76  A    between atoms: _192  and  _194
REMARK   77  A    between atoms: _194  and  _195
REMARK   78  A    between atoms: _194  and  _197
REMARK   79  A    between atoms: _200  and  _202
REMARK   80  A    between atoms: _202  and  _203
REMARK   81  A    between atoms: _202  and  _205
REMARK   82  A    between atoms: _205  and  _206
REMARK   83  A    between atoms: _209  and  _211
REMARK   84  A    between atoms: _211  and  _212
REMARK   85  A    between atoms: _214  and  _216
REMARK   86  A    between atoms: _216  and  _217
REMARK   87  A    between atoms: _216  and  _219
REMARK   88  A    between atoms: _219  and  _220
REMARK   89  A    between atoms: _220  and  _221
REMARK   90  A    between atoms: _221  and  CA_702
REMARK   91  A    between atoms: _223  and  _225
REMARK   92  A    between atoms: _225  and  _226
REMARK   93  A    between atoms: _228  and  _230
REMARK   94  A    between atoms: _230  and  _231
REMARK   95  A    between atoms: _230  and  _233
REMARK   96  A    between atoms: _233  and  _234
REMARK   97  A    between atoms: _236  and  _238
REMARK   98  A    between atoms: _238  and  _239
REMARK   99  A    between atoms: _238  and  _241
REMARK  100  A    between atoms: _244  and  _246
REMARK  101  A    between atoms: _246  and  _247
REMARK  102  A    between atoms: _249  and  _251
REMARK  103  A    between atoms: _251  and  _252
REMARK  104  A    between atoms: _251  and  _254
REMARK  105  A    between atoms: _254  and  _255
REMARK  106  A    between atoms: _260  and  _261
REMARK  107  A    between atoms: _263  and  _265
REMARK  108  A    between atoms: _265  and  _266
REMARK  109  A    between atoms: _265  and  _268
REMARK  110  A    between atoms: _268  and  _269
REMARK  111  A    between atoms: _272  and  _274
REMARK  112  A    between atoms: _274  and  _275
REMARK  113  A    between atoms: _274  and  _277
REMARK  114  A    between atoms: _275  and  _276
REMARK  115  A    between atoms: _275  and  _281
REMARK  116  A    between atoms: _276  and  CA_702
REMARK  117  A    between atoms: _277  and  _278
REMARK  118  A    between atoms: _278  and  _279
REMARK  119  A    between atoms: _281  and  _283
REMARK  120  A    between atoms: _283  and  _284
REMARK  121  A    between atoms: _283  and  _286
REMARK  122  A    between atoms: _286  and  _287
REMARK  123  A    between atoms: _292  and  _294
REMARK  124  A    between atoms: _294  and  _295
REMARK  125  A    between atoms: _294  and  _297
REMARK  126  A    between atoms: _297  and  _298
REMARK  127  A    between atoms: _303  and  _305
REMARK  128  A    between atoms: _305  and  _306
REMARK  129  A    between atoms: _305  and  _308
REMARK  130  A    between atoms: _308  and  _309
REMARK  131  A    between atoms: _309  and  _310
REMARK  132  A    between atoms: _315  and  _317
REMARK  133  A    between atoms: _317  and  _318
REMARK  134  A    between atoms: _317  and  _320
REMARK  135  A    between atoms: _320  and  _321
REMARK  136  A    between atoms: _323  and  _325
REMARK  137  A    between atoms: _325  and  _326
REMARK  138  A    between atoms: _325  and  _328
REMARK  139  A    between atoms: _328  and  _329
REMARK  140  A    between atoms: _339  and  _341
REMARK  141  A    between atoms: _341  and  _342
REMARK  142  A    between atoms: _344  and  _346
REMARK  143  A    between atoms: _346  and  _347
REMARK  144  A    between atoms: _350  and  _352
REMARK  145  A    between atoms: _352  and  _353
REMARK  146  A    between atoms: _352  and  _355
REMARK  147  A    between atoms: _355  and  _356
REMARK  148  A    between atoms: _359  and  _361
REMARK  149  A    between atoms: _361  and  _362
REMARK  150  A    between atoms: _361  and  _364
REMARK  151  A    between atoms: _364  and  _365
REMARK  152  A    between atoms: _368  and  _370
REMARK  153  A    between atoms: _370  and  _371
REMARK  154  A    between atoms: _370  and  _373
REMARK  155  A    between atoms: _373  and  _374
REMARK  156  A    between atoms: _379  and  _381
REMARK  157  A    between atoms: _381  and  _382
REMARK  158  A    between atoms: _381  and  _384
REMARK  159  A    between atoms: _384  and  _385
REMARK  160  A    between atoms: _391  and  _393
REMARK  161  A    between atoms: _393  and  _394
REMARK  162  A    between atoms: _393  and  _396
REMARK  163  A    between atoms: _396  and  _397
REMARK  164  A    between atoms: _397  and  _398
REMARK  165  A    between atoms: _403  and  _405
REMARK  166  A    between atoms: _405  and  _406
REMARK  167  A    between atoms: _408  and  _410
REMARK  168  A    between atoms: _410  and  _411
REMARK  169  A    between atoms: _410  and  _413
REMARK  170  A    between atoms: _413  and  _414
REMARK  171  A    between atoms: _417  and  _419
REMARK  172  A    between atoms: _419  and  _420
REMARK  173  A    between atoms: _419  and  _422
REMARK  174  A    between atoms: _422  and  _423
REMARK  175  A    between atoms: _426  and  _428
REMARK  176  A    between atoms: _428  and  _429
REMARK  177  A    between atoms: _428  and  _431
REMARK  178  A    between atoms: _431  and  _432
REMARK  179  A    between atoms: _437  and  _438
REMARK  180  A    between atoms: _440  and  _442
REMARK  181  A    between atoms: _442  and  _443
REMARK  182  A    between atoms: _442  and  _445
REMARK  183  A    between atoms: _448  and  _450
REMARK  184  A    between atoms: _450  and  _451
REMARK  185  A    between atoms: _454  and  _456
REMARK  186  A    between atoms: _456  and  _457
REMARK  187  A    between atoms: _456  and  _459
REMARK  188  A    between atoms: _459  and  _460
REMARK  189  A    between atoms: _463  and  _465
REMARK  190  A    between atoms: _465  and  _466
REMARK  191  A    between atoms: _465  and  _468
REMARK  192  A    between atoms: _468  and  _469
REMARK  193  A    between atoms: _469  and  _470
REMARK  194  A    between atoms: _473  and  _475
REMARK  195  A    between atoms: _475  and  _476
REMARK  196  A    between atoms: _475  and  _478
REMARK  197  A    between atoms: _478  and  _479
REMARK  198  A    between atoms: _479  and  _480
REMARK  199  A    between atoms: _483  and  _485
REMARK  200  A    between atoms: _485  and  _486
REMARK  201  A    between atoms: _485  and  _488
REMARK  202  A    between atoms: _488  and  _489
REMARK  203  A    between atoms: _492  and  _494
REMARK  204  A    between atoms: _494  and  _495
REMARK  205  A    between atoms: _494  and  _497
REMARK  206  A    between atoms: _497  and  _498
REMARK  207  A    between atoms: _503  and  _505
REMARK  208  A    between atoms: _505  and  _506
REMARK  209  A    between atoms: _508  and  _510
REMARK  210  A    between atoms: _510  and  _511
REMARK  211  A    between atoms: _510  and  _513
REMARK  212  A    between atoms: _513  and  _514
REMARK  213  A    between atoms: _516  and  _518
REMARK  214  A    between atoms: _518  and  _519
REMARK  215  A    between atoms: _518  and  _521
REMARK  216  A    between atoms: _521  and  _522
REMARK  217  A    between atoms: _527  and  _529
REMARK  218  A    between atoms: _529  and  _530
REMARK  219  A    between atoms: _529  and  _532
REMARK  220  A    between atoms: _532  and  _533
REMARK  221  A    between atoms: _536  and  _538
REMARK  222  A    between atoms: _538  and  _539
REMARK  223  A    between atoms: _538  and  _541
REMARK  224  A    between atoms: _541  and  _542
REMARK  225  A    between atoms: _545  and  _547
REMARK  226  A    between atoms: _547  and  _548
REMARK  227  A    between atoms: _547  and  _550
REMARK  228  A    between atoms: _550  and  _551
REMARK  229  A    between atoms: _551  and  _552
REMARK  230  A    between atoms: _552  and  _553
REMARK  231  A    between atoms: _562  and  _564
REMARK  232  A    between atoms: _564  and  _565
REMARK  233  A    between atoms: _564  and  _567
REMARK  234  A    between atoms: _567  and  _568
REMARK  235  A    between atoms: _573  and  _575
REMARK  236  A    between atoms: _575  and  _576
REMARK  237  A    between atoms: _575  and  _578
REMARK  238  A    between atoms: _578  and  _579
REMARK  239  A    between atoms: _579  and  _580
REMARK  240  A    between atoms: _583  and  _585
REMARK  241  A    between atoms: _585  and  _586
REMARK  242  A    between atoms: _589  and  _591
REMARK  243  A    between atoms: _591  and  _592
REMARK  244  A    between atoms: _591  and  _594
REMARK  245  A    between atoms: _597  and  _599
REMARK  246  A    between atoms: _599  and  _600
REMARK  247  A    between atoms: _599  and  _602
REMARK  248  A    between atoms: _602  and  _603
REMARK  249  A    between atoms: _606  and  _608
REMARK  250  A    between atoms: _608  and  _609
REMARK  251  A    between atoms: _612  and  _614
REMARK  252  A    between atoms: _614  and  _615
REMARK  253  A    between atoms: _617  and  _619
REMARK  254  A    between atoms: _619  and  _620
REMARK  255  A    between atoms: _622  and  _624
REMARK  256  A    between atoms: _624  and  _625
REMARK  257  A    between atoms: _627  and  _629
REMARK  258  A    between atoms: _629  and  _630
REMARK  259  A    between atoms: _629  and  _632
REMARK  260  A    between atoms: _632  and  _633
REMARK  261  A    between atoms: _639  and  _641
REMARK  262  A    between atoms: _641  and  _642
REMARK  263  A    between atoms: _641  and  _644
REMARK  264  A    between atoms: _644  and  _645
REMARK  265  A    between atoms: _648  and  _650
REMARK  266  A    between atoms: _650  and  _651
REMARK  267  A    between atoms: _650  and  _653
REMARK  268  A    between atoms: _653  and  _654
REMARK  269  A    between atoms: _659  and  _661
REMARK  270  A    between atoms: _661  and  _662
REMARK  271  A    between atoms: _665  and  _667
REMARK  272  A    between atoms: _667  and  _668
REMARK  273  A    between atoms: _667  and  _670
REMARK  274  A    between atoms: _670  and  _671
REMARK  275  A    between atoms: _674  and  _676
REMARK  276  A    between atoms: _676  and  _677
REMARK  277  A    between atoms: _676  and  _679
REMARK  278  A    between atoms: _679  and  _680
REMARK  279  A    between atoms: _680  and  _681
REMARK  280  A    between atoms: _686  and  _688
REMARK  281  A    between atoms: _688  and  _689
REMARK  282  A    between atoms: _688  and  _691
REMARK  283  A    between atoms: _691  and  _692
REMARK                            x       y       z     vdW  Elec       q    Type
REMARK                         _______ _______ _______ _____ _____    ______ ____
ROOT
ATOM      1  CG  TYR A   1      -4.373 -58.077 -36.853  0.00  0.00    -0.020 A 
ATOM      2  CD2 TYR A   1      -3.002 -57.836 -36.930  0.00  0.00    -0.001 A 
ATOM      3  CE2 TYR A   1      -2.504 -56.547 -37.088  0.00  0.00    +0.036 A 
ATOM      4  CZ  TYR A   1      -3.383 -55.481 -37.172  0.00  0.00    +0.134 A 
ATOM      5  CE1 TYR A   1      -4.752 -55.693 -37.099  0.00  0.00    +0.036 A 
ATOM      6  CD1 TYR A   1      -5.239 -56.987 -36.941  0.00  0.00    -0.001 A 
ENDROOT
BRANCH   4   7
ATOM      7  OH  TYR A   1      -2.891 -54.206 -37.330  0.00  0.00    -0.506 OA
ATOM      8  HH  TYR A   1      -3.238 -53.822 -38.174  0.00  0.00    +0.292 HD
ENDBRANCH   4   7
BRANCH   1   9
ATOM      9  CB  TYR A   1      -4.908 -59.482 -36.687  0.00  0.00    +0.051 C 
BRANCH   9  10
ATOM     10  CA  TYR A   1      -4.778 -60.337 -37.952  0.00  0.00    +0.137 C 
BRANCH  10  11
ATOM     11  N   TYR A   1      -5.495 -59.721 -39.070  0.00  0.00    -0.239 NA
ATOM     12  H   TYR A   1      -6.159 -58.944 -38.877  0.00  0.00    +0.142 HD
ENDBRANCH  10  11
BRANCH  10  13
ATOM     13  C   TYR A   1      -5.199 -61.781 -37.689  0.00  0.00    +0.224 C 
ATOM     14  O   TYR A   1      -4.367 -62.612 -37.321  0.00  0.00    -0.287 OA
ENDBRANCH  10  13
ENDBRANCH   9  10
ENDBRANCH   1   9
TORSDOF 5
REMARK  Name = ../refined-set-2016/3iae/3iae_pocket.pdb
REMARK  283 active torsions:
REMARK  status: ('A' for Active; 'I' for Inactive)
REMARK    1  A    between atoms: _1  and  _3
REMARK    2  A    between atoms: _3  and  _4
REMARK    3  A    between atoms: _3  and  _6
REMARK    4  A    between atoms: _6  and  _7
REMARK    5  A    between atoms: _10  and  _12
REMARK    6  A    between atoms: _12  and  _13
REMARK    7  A    between atoms: _12  and  _15
REMARK    8  A    between atoms: _15  and  _16
REMARK    9  A    between atoms: _21  and  _22
REMARK   10  A    between atoms: _24  and  _26
REMARK   11  A    between atoms: _26  and  _27
REMARK   12  A    between atoms: _26  and  _29
REMARK   13  A    between atoms: _29  and  _30
REMARK   14  A    between atoms: _34  and  _35
REMARK   15  A    between atoms: _40  and  _42
REMARK   16  A    between atoms: _42  and  _43
REMARK   17  A    between atoms: _42  and  _45
REMARK   18  A    between atoms: _45  and  _46
REMARK   19  A    between atoms: _49  and  _51
REMARK   20  A    between atoms: _51  and  _52
REMARK   21  A    between atoms: _54  and  _56
REMARK   22  A    between atoms: _56  and  _57
REMARK   23  A    between atoms: _60  and  _62
REMARK   24  A    between atoms: _62  and  _63
REMARK   25  A    between atoms: _62  and  _65
REMARK   26  A    between atoms: _65  and  _66
REMARK   27  A    between atoms: _69  and  _71
REMARK   28  A    between atoms: _71  and  _72
REMARK   29  A    between atoms: _71  and  _74
REMARK   30  A    between atoms: _74  and  _75
REMARK   31  A    between atoms: _78  and  _80
REMARK   32  A    between atoms: _80  and  _81
REMARK   33  A    between atoms: _80  and  _83
REMARK   34  A    between atoms: _83  and  _84
REMARK   35  A    between atoms: _89  and  _90
REMARK   36  A    between atoms: _92  and  _94
REMARK   37  A    between atoms: _94  and  _95
REMARK   38  A    between atoms: _94  and  _97
REMARK   39  A    between atoms: _97  and  _98
REMARK   40  A    between atoms: _101  and  _103
REMARK   41  A    between atoms: _103  and  _104
REMARK   42  A    between atoms: _103  and  _106
REMARK   43  A    between atoms: _106  and  _107
REMARK   44  A    between atoms: _117  and  _119
REMARK   45  A    between atoms: _119  and  _120
REMARK   46  A    between atoms: _119  and  _122
REMARK   47  A    between atoms: _122  and  _123
REMARK   48  A    between atoms: _126  and  _128
REMARK   49  A    between atoms: _128  and  _129
REMARK   50  A    between atoms: _128  and  _131
REMARK   51  A    between atoms: _131  and  _132
REMARK   52  A    between atoms: _137  and  _139
REMARK   53  A    between atoms: _139  and  _140
REMARK   54  A    between atoms: _142  and  _144
REMARK   55  A    between atoms: _144  and  _145
REMARK   56  A    between atoms: _144  and  _147
REMARK   57  A    between atoms: _147  and  _148
REMARK   58  A    between atoms: _153  and  _154
REMARK   59  A    between atoms: _156  and  _158
REMARK   60  A    between atoms: _158  and  _159
REMARK   61  A    between atoms: _158  and  _161
REMARK   62  A    between atoms: _161  and  _162
REMARK   63  A    between atoms: _165  and  _167
REMARK   64  A    between atoms: _167  and  _168
REMARK   65  A    between atoms: _170  and  _172
REMARK   66  A    between atoms: _172  and  _173
REMARK   67  A    between atoms: _172  and  _175
REMARK   68  A    between atoms: _175  and  _176
REMARK   69  A    between atoms: _178  and  _180
REMARK   70  A    between atoms: _180  and  _181
REMARK   71  A    between atoms: _180  and  _183
REMARK   72  A    between atoms: _183  and  _184
REMARK   73  A    between atoms: _184  and  _185
REMARK   74  A    between atoms: _187  and  _189
REMARK   75  A    between atoms: _189  and  _190
REMARK   76  A    between atoms: _192  and  _194
REMARK   77  A    between atoms: _194  and  _195
REMARK   78  A    between atoms: _194  and  _197
REMARK   79  A    between atoms: _200  and  _202
REMARK   80  A    between atoms: _202  and  _203
REMARK   81  A    between atoms: _202  and  _205
REMARK   82  A    between atoms: _205  and  _206
REMARK   83  A    between atoms: _209  and  _211
REMARK   84  A    between atoms: _211  and  _212
REMARK   85  A    between atoms: _214  and  _216
REMARK   86  A    between atoms: _216  and  _217
REMARK   87  A    between atoms: _216  and  _219
REMARK   88  A    between atoms: _219  and  _220
REMARK   89  A    between atoms: _220  and  _221
REMARK   90  A    between atoms: _221  and  CA_702
REMARK   91  A    between atoms: _223  and  _225
REMARK   92  A    between atoms: _225  and  _226
REMARK   93  A    between atoms: _228  and  _230
REMARK   94  A    between atoms: _230  and  _231
REMARK   95  A    between atoms: _230  and  _233
REMARK   96  A    between atoms: _233  and  _234
REMARK   97  A    between atoms: _236  and  _238
REMARK   98  A    between atoms: _238  and  _239
REMARK   99  A    between atoms: _238  and  _241
REMARK  100  A    between atoms: _244  and  _246
REMARK  101  A    between atoms: _246  and  _247
REMARK  102  A    between atoms: _249  and  _251
REMARK  103  A    between atoms: _251  and  _252
REMARK  104  A    between atoms: _251  and  _254
REMARK  105  A    between atoms: _254  and  _255
REMARK  106  A    between atoms: _260  and  _261
REMARK  107  A    between atoms: _263  and  _265
REMARK  108  A    between atoms: _265  and  _266
REMARK  109  A    between atoms: _265  and  _268
REMARK  110  A    between atoms: _268  and  _269
REMARK  111  A    between atoms: _272  and  _274
REMARK  112  A    between atoms: _274  and  _275
REMARK  113  A    between atoms: _274  and  _277
REMARK  114  A    between atoms: _275  and  _276
REMARK  115  A    between atoms: _275  and  _281
REMARK  116  A    between atoms: _276  and  CA_702
REMARK  117  A    between atoms: _277  and  _278
REMARK  118  A    between atoms: _278  and  _279
REMARK  119  A    between atoms: _281  and  _283
REMARK  120  A    between atoms: _283  and  _284
REMARK  121  A    between atoms: _283  and  _286
REMARK  122  A    between atoms: _286  and  _287
REMARK  123  A    between atoms: _292  and  _294
REMARK  124  A    between atoms: _294  and  _295
REMARK  125  A    between atoms: _294  and  _297
REMARK  126  A    between atoms: _297  and  _298
REMARK  127  A    between atoms: _303  and  _305
REMARK  128  A    between atoms: _305  and  _306
REMARK  129  A    between atoms: _305  and  _308
REMARK  130  A    between atoms: _308  and  _309
REMARK  131  A    between atoms: _309  and  _310
REMARK  132  A    between atoms: _315  and  _317
REMARK  133  A    between atoms: _317  and  _318
REMARK  134  A    between atoms: _317  and  _320
REMARK  135  A    between atoms: _320  and  _321
REMARK  136  A    between atoms: _323  and  _325
REMARK  137  A    between atoms: _325  and  _326
REMARK  138  A    between atoms: _325  and  _328
REMARK  139  A    between atoms: _328  and  _329
REMARK  140  A    between atoms: _339  and  _341
REMARK  141  A    between atoms: _341  and  _342
REMARK  142  A    between atoms: _344  and  _346
REMARK  143  A    between atoms: _346  and  _347
REMARK  144  A    between atoms: _350  and  _352
REMARK  145  A    between atoms: _352  and  _353
REMARK  146  A    between atoms: _352  and  _355
REMARK  147  A    between atoms: _355  and  _356
REMARK  148  A    between atoms: _359  and  _361
REMARK  149  A    between atoms: _361  and  _362
REMARK  150  A    between atoms: _361  and  _364
REMARK  151  A    between atoms: _364  and  _365
REMARK  152  A    between atoms: _368  and  _370
REMARK  153  A    between atoms: _370  and  _371
REMARK  154  A    between atoms: _370  and  _373
REMARK  155  A    between atoms: _373  and  _374
REMARK  156  A    between atoms: _379  and  _381
REMARK  157  A    between atoms: _381  and  _382
REMARK  158  A    between atoms: _381  and  _384
REMARK  159  A    between atoms: _384  and  _385
REMARK  160  A    between atoms: _391  and  _393
REMARK  161  A    between atoms: _393  and  _394
REMARK  162  A    between atoms: _393  and  _396
REMARK  163  A    between atoms: _396  and  _397
REMARK  164  A    between atoms: _397  and  _398
REMARK  165  A    between atoms: _403  and  _405
REMARK  166  A    between atoms: _405  and  _406
REMARK  167  A    between atoms: _408  and  _410
REMARK  168  A    between atoms: _410  and  _411
REMARK  169  A    between atoms: _410  and  _413
REMARK  170  A    between atoms: _413  and  _414
REMARK  171  A    between atoms: _417  and  _419
REMARK  172  A    between atoms: _419  and  _420
REMARK  173  A    between atoms: _419  and  _422
REMARK  174  A    between atoms: _422  and  _423
REMARK  175  A    between atoms: _426  and  _428
REMARK  176  A    between atoms: _428  and  _429
REMARK  177  A    between atoms: _428  and  _431
REMARK  178  A    between atoms: _431  and  _432
REMARK  179  A    between atoms: _437  and  _438
REMARK  180  A    between atoms: _440  and  _442
REMARK  181  A    between atoms: _442  and  _443
REMARK  182  A    between atoms: _442  and  _445
REMARK  183  A    between atoms: _448  and  _450
REMARK  184  A    between atoms: _450  and  _451
REMARK  185  A    between atoms: _454  and  _456
REMARK  186  A    between atoms: _456  and  _457
REMARK  187  A    between atoms: _456  and  _459
REMARK  188  A    between atoms: _459  and  _460
REMARK  189  A    between atoms: _463  and  _465
REMARK  190  A    between atoms: _465  and  _466
REMARK  191  A    between atoms: _465  and  _468
REMARK  192  A    between atoms: _468  and  _469
REMARK  193  A    between atoms: _469  and  _470
REMARK  194  A    between atoms: _473  and  _475
REMARK  195  A    between atoms: _475  and  _476
REMARK  196  A    between atoms: _475  and  _478
REMARK  197  A    between atoms: _478  and  _479
REMARK  198  A    between atoms: _479  and  _480
REMARK  199  A    between atoms: _483  and  _485
REMARK  200  A    between atoms: _485  and  _486
REMARK  201  A    between atoms: _485  and  _488
REMARK  202  A    between atoms: _488  and  _489
REMARK  203  A    between atoms: _492  and  _494
REMARK  204  A    between atoms: _494  and  _495
REMARK  205  A    between atoms: _494  and  _497
REMARK  206  A    between atoms: _497  and  _498
REMARK  207  A    between atoms: _503  and  _505
REMARK  208  A    between atoms: _505  and  _506
REMARK  209  A    between atoms: _508  and  _510
REMARK  210  A    between atoms: _510  and  _511
REMARK  211  A    between atoms: _510  and  _513
REMARK  212  A    between atoms: _513  and  _514
REMARK  213  A    between atoms: _516  and  _518
REMARK  214  A    between atoms: _518  and  _519
REMARK  215  A    between atoms: _518  and  _521
REMARK  216  A    between atoms: _521  and  _522
REMARK  217  A    between atoms: _527  and  _529
REMARK  218  A    between atoms: _529  and  _530
REMARK  219  A    between atoms: _529  and  _532
REMARK  220  A    between atoms: _532  and  _533
REMARK  221  A    between atoms: _536  and  _538
REMARK  222  A    between atoms: _538  and  _539
REMARK  223  A    between atoms: _538  and  _541
REMARK  224  A    between atoms: _541  and  _542
REMARK  225  A    between atoms: _545  and  _547
REMARK  226  A    between atoms: _547  and  _548
REMARK  227  A    between atoms: _547  and  _550
REMARK  228  A    between atoms: _550  and  _551
REMARK  229  A    between atoms: _551  and  _552
REMARK  230  A    between atoms: _552  and  _553
REMARK  231  A    between atoms: _562  and  _564
REMARK  232  A    between atoms: _564  and  _565
REMARK  233  A    between atoms: _564  and  _567
REMARK  234  A    between atoms: _567  and  _568
REMARK  235  A    between atoms: _573  and  _575
REMARK  236  A    between atoms: _575  and  _576
REMARK  237  A    between atoms: _575  and  _578
REMARK  238  A    between atoms: _578  and  _579
REMARK  239  A    between atoms: _579  and  _580
REMARK  240  A    between atoms: _583  and  _585
REMARK  241  A    between atoms: _585  and  _586
REMARK  242  A    between atoms: _589  and  _591
REMARK  243  A    between atoms: _591  and  _592
REMARK  244  A    between atoms: _591  and  _594
REMARK  245  A    between atoms: _597  and  _599
REMARK  246  A    between atoms: _599  and  _600
REMARK  247  A    between atoms: _599  and  _602
REMARK  248  A    between atoms: _602  and  _603
REMARK  249  A    between atoms: _606  and  _608
REMARK  250  A    between atoms: _608  and  _609
REMARK  251  A    between atoms: _612  and  _614
REMARK  252  A    between atoms: _614  and  _615
REMARK  253  A    between atoms: _617  and  _619
REMARK  254  A    between atoms: _619  and  _620
REMARK  255  A    between atoms: _622  and  _624
REMARK  256  A    between atoms: _624  and  _625
REMARK  257  A    between atoms: _627  and  _629
REMARK  258  A    between atoms: _629  and  _630
REMARK  259  A    between atoms: _629  and  _632
REMARK  260  A    between atoms: _632  and  _633
REMARK  261  A    between atoms: _639  and  _641
REMARK  262  A    between atoms: _641  and  _642
REMARK  263  A    between atoms: _641  and  _644
REMARK  264  A    between atoms: _644  and  _645
REMARK  265  A    between atoms: _648  and  _650
REMARK  266  A    between atoms: _650  and  _651
REMARK  267  A    between atoms: _650  and  _653
REMARK  268  A    between atoms: _653  and  _654
REMARK  269  A    between atoms: _659  and  _661
REMARK  270  A    between atoms: _661  and  _662
REMARK  271  A    between atoms: _665  and  _667
REMARK  272  A    between atoms: _667  and  _668
REMARK  273  A    between atoms: _667  and  _670
REMARK  274  A    between atoms: _670  and  _671
REMARK  275  A    between atoms: _674  and  _676
REMARK  276  A    between atoms: _676  and  _677
REMARK  277  A    between atoms: _676  and  _679
REMARK  278  A    between atoms: _679  and  _680
REMARK  279  A    between atoms: _680  and  _681
REMARK  280  A    between atoms: _686  and  _688
REMARK  281  A    between atoms: _688  and  _689
REMARK  282  A    between atoms: _688  and  _691
REMARK  283  A    between atoms: _691  and  _692
REMARK                            x       y       z     vdW  Elec       q    Type
REMARK                         _______ _______ _______ _____ _____    ______ ____
ROOT
ATOM      1  CA  ALA A   2     -14.869 -47.869 -32.536  0.00  0.00    +0.149 C 
ATOM      2  CB  ALA A   2     -16.153 -47.256 -32.001  0.00  0.00    +0.031 C 
ENDROOT
BRANCH   1   4
ATOM      3  C   VAL A   1     -13.937 -50.131 -32.803  0.00  0.00    +0.238 C 
ATOM      4  N   ALA A   2     -14.854 -49.313 -32.286  0.00  0.00    -0.297 N 
ATOM      5  H   ALA A   2     -15.593 -49.718 -31.677  0.00  0.00    +0.150 HD
ATOM      6  O   VAL A   1     -13.027 -49.747 -33.542  0.00  0.00    -0.274 OA
BRANCH   3   7
ATOM      7  CA  VAL A   1     -14.080 -51.616 -32.448  0.00  0.00    +0.145 C 
BRANCH   7   8
ATOM      8  CB  VAL A   1     -13.280 -52.010 -31.167  0.00  0.00    +0.025 C 
ATOM      9  CG2 VAL A   1     -13.100 -50.840 -30.208  0.00  0.00    +0.002 C 
ATOM     10  CG1 VAL A   1     -13.950 -53.183 -30.462  0.00  0.00    +0.002 C 
ENDBRANCH   7   8
BRANCH   7  11
ATOM     11  N   VAL A   1     -13.682 -52.461 -33.569  0.00  0.00    -0.238 NA
ATOM     12  H   VAL A   1     -12.789 -52.251 -34.058  0.00  0.00    +0.142 HD
ENDBRANCH   7  11
ENDBRANCH   3   7
ENDBRANCH   1   4
BRANCH   1  13
ATOM     13  C   ALA A   2     -13.654 -47.162 -31.938  0.00  0.00    +0.241 C 
ATOM     14  O   ALA A   2     -13.162 -47.543 -30.875  0.00  0.00    -0.273 OA
ATOM     15  N   LEU A   3     -13.188 -46.125 -32.629  0.00  0.00    -0.298 N 
ATOM     16  H   LEU A   3     -13.690 -45.834 -33.492  0.00  0.00    +0.150 HD
BRANCH  15  17
ATOM     17  CA  LEU A   3     -11.999 -45.378 -32.223  0.00  0.00    +0.137 C 
BRANCH  17  18
ATOM     18  C   LEU A   3     -12.329 -44.087 -31.467  0.00  0.00    +0.227 C 
ATOM     19  O   LEU A   3     -11.615 -43.713 -30.532  0.00  0.00    -0.286 OA
ENDBRANCH  17  18
BRANCH  17  20
ATOM     20  CB  LEU A   3     -11.129 -45.070 -33.451  0.00  0.00    +0.028 C 
BRANCH  20  21
ATOM     21  CG  LEU A   3      -9.836 -44.260 -33.295  0.00  0.00    +0.002 C 
ATOM     22  CD2 LEU A   3      -8.871 -44.919 -32.318  0.00  0.00    +0.000 C 
ATOM     23  CD1 LEU A   3      -9.172 -44.051 -34.649  0.00  0.00    +0.000 C 
ENDBRANCH  20  21
ENDBRANCH  17  20
ENDBRANCH  15  17
ENDBRANCH   1  13
TORSDOF 9
REMARK  Name = ../refined-set-2016/3iae/3iae_pocket.pdb
REMARK  283 active torsions:
REMARK  status: ('A' for Active; 'I' for Inactive)
REMARK    1  A    between atoms: _1  and  _3
REMARK    2  A    between atoms: _3  and  _4
REMARK    3  A    between atoms: _3  and  _6
REMARK    4  A    between atoms: _6  and  _7
REMARK    5  A    between atoms: _10  and  _12
REMARK    6  A    between atoms: _12  and  _13
REMARK    7  A    between atoms: _12  and  _15
REMARK    8  A    between atoms: _15  and  _16
REMARK    9  A    between atoms: _21  and  _22
REMARK   10  A    between atoms: _24  and  _26
REMARK   11  A    between atoms: _26  and  _27
REMARK   12  A    between atoms: _26  and  _29
REMARK   13  A    between atoms: _29  and  _30
REMARK   14  A    between atoms: _34  and  _35
REMARK   15  A    between atoms: _40  and  _42
REMARK   16  A    between atoms: _42  and  _43
REMARK   17  A    between atoms: _42  and  _45
REMARK   18  A    between atoms: _45  and  _46
REMARK   19  A    between atoms: _49  and  _51
REMARK   20  A    between atoms: _51  and  _52
REMARK   21  A    between atoms: _54  and  _56
REMARK   22  A    between atoms: _56  and  _57
REMARK   23  A    between atoms: _60  and  _62
REMARK   24  A    between atoms: _62  and  _63
REMARK   25  A    between atoms: _62  and  _65
REMARK   26  A    between atoms: _65  and  _66
REMARK   27  A    between atoms: _69  and  _71
REMARK   28  A    between atoms: _71  and  _72
REMARK   29  A    between atoms: _71  and  _74
REMARK   30  A    between atoms: _74  and  _75
REMARK   31  A    between atoms: _78  and  _80
REMARK   32  A    between atoms: _80  and  _81
REMARK   33  A    between atoms: _80  and  _83
REMARK   34  A    between atoms: _83  and  _84
REMARK   35  A    between atoms: _89  and  _90
REMARK   36  A    between atoms: _92  and  _94
REMARK   37  A    between atoms: _94  and  _95
REMARK   38  A    between atoms: _94  and  _97
REMARK   39  A    between atoms: _97  and  _98
REMARK   40  A    between atoms: _101  and  _103
REMARK   41  A    between atoms: _103  and  _104
REMARK   42  A    between atoms: _103  and  _106
REMARK   43  A    between atoms: _106  and  _107
REMARK   44  A    between atoms: _117  and  _119
REMARK   45  A    between atoms: _119  and  _120
REMARK   46  A    between atoms: _119  and  _122
REMARK   47  A    between atoms: _122  and  _123
REMARK   48  A    between atoms: _126  and  _128
REMARK   49  A    between atoms: _128  and  _129
REMARK   50  A    between atoms: _128  and  _131
REMARK   51  A    between atoms: _131  and  _132
REMARK   52  A    between atoms: _137  and  _139
REMARK   53  A    between atoms: _139  and  _140
REMARK   54  A    between atoms: _142  and  _144
REMARK   55  A    between atoms: _144  and  _145
REMARK   56  A    between atoms: _144  and  _147
REMARK   57  A    between atoms: _147  and  _148
REMARK   58  A    between atoms: _153  and  _154
REMARK   59  A    between atoms: _156  and  _158
REMARK   60  A    between atoms: _158  and  _159
REMARK   61  A    between atoms: _158  and  _161
REMARK   62  A    between atoms: _161  and  _162
REMARK   63  A    between atoms: _165  and  _167
REMARK   64  A    between atoms: _167  and  _168
REMARK   65  A    between atoms: _170  and  _172
REMARK   66  A    between atoms: _172  and  _173
REMARK   67  A    between atoms: _172  and  _175
REMARK   68  A    between atoms: _175  and  _176
REMARK   69  A    between atoms: _178  and  _180
REMARK   70  A    between atoms: _180  and  _181
REMARK   71  A    between atoms: _180  and  _183
REMARK   72  A    between atoms: _183  and  _184
REMARK   73  A    between atoms: _184  and  _185
REMARK   74  A    between atoms: _187  and  _189
REMARK   75  A    between atoms: _189  and  _190
REMARK   76  A    between atoms: _192  and  _194
REMARK   77  A    between atoms: _194  and  _195
REMARK   78  A    between atoms: _194  and  _197
REMARK   79  A    between atoms: _200  and  _202
REMARK   80  A    between atoms: _202  and  _203
REMARK   81  A    between atoms: _202  and  _205
REMARK   82  A    between atoms: _205  and  _206
REMARK   83  A    between atoms: _209  and  _211
REMARK   84  A    between atoms: _211  and  _212
REMARK   85  A    between atoms: _214  and  _216
REMARK   86  A    between atoms: _216  and  _217
REMARK   87  A    between atoms: _216  and  _219
REMARK   88  A    between atoms: _219  and  _220
REMARK   89  A    between atoms: _220  and  _221
REMARK   90  A    between atoms: _221  and  CA_702
REMARK   91  A    between atoms: _223  and  _225
REMARK   92  A    between atoms: _225  and  _226
REMARK   93  A    between atoms: _228  and  _230
REMARK   94  A    between atoms: _230  and  _231
REMARK   95  A    between atoms: _230  and  _233
REMARK   96  A    between atoms: _233  and  _234
REMARK   97  A    between atoms: _236  and  _238
REMARK   98  A    between atoms: _238  and  _239
REMARK   99  A    between atoms: _238  and  _241
REMARK  100  A    between atoms: _244  and  _246
REMARK  101  A    between atoms: _246  and  _247
REMARK  102  A    between atoms: _249  and  _251
REMARK  103  A    between atoms: _251  and  _252
REMARK  104  A    between atoms: _251  and  _254
REMARK  105  A    between atoms: _254  and  _255
REMARK  106  A    between atoms: _260  and  _261
REMARK  107  A    between atoms: _263  and  _265
REMARK  108  A    between atoms: _265  and  _266
REMARK  109  A    between atoms: _265  and  _268
REMARK  110  A    between atoms: _268  and  _269
REMARK  111  A    between atoms: _272  and  _274
REMARK  112  A    between atoms: _274  and  _275
REMARK  113  A    between atoms: _274  and  _277
REMARK  114  A    between atoms: _275  and  _276
REMARK  115  A    between atoms: _275  and  _281
REMARK  116  A    between atoms: _276  and  CA_702
REMARK  117  A    between atoms: _277  and  _278
REMARK  118  A    between atoms: _278  and  _279
REMARK  119  A    between atoms: _281  and  _283
REMARK  120  A    between atoms: _283  and  _284
REMARK  121  A    between atoms: _283  and  _286
REMARK  122  A    between atoms: _286  and  _287
REMARK  123  A    between atoms: _292  and  _294
REMARK  124  A    between atoms: _294  and  _295
REMARK  125  A    between atoms: _294  and  _297
REMARK  126  A    between atoms: _297  and  _298
REMARK  127  A    between atoms: _303  and  _305
REMARK  128  A    between atoms: _305  and  _306
REMARK  129  A    between atoms: _305  and  _308
REMARK  130  A    between atoms: _308  and  _309
REMARK  131  A    between atoms: _309  and  _310
REMARK  132  A    between atoms: _315  and  _317
REMARK  133  A    between atoms: _317  and  _318
REMARK  134  A    between atoms: _317  and  _320
REMARK  135  A    between atoms: _320  and  _321
REMARK  136  A    between atoms: _323  and  _325
REMARK  137  A    between atoms: _325  and  _326
REMARK  138  A    between atoms: _325  and  _328
REMARK  139  A    between atoms: _328  and  _329
REMARK  140  A    between atoms: _339  and  _341
REMARK  141  A    between atoms: _341  and  _342
REMARK  142  A    between atoms: _344  and  _346
REMARK  143  A    between atoms: _346  and  _347
REMARK  144  A    between atoms: _350  and  _352
REMARK  145  A    between atoms: _352  and  _353
REMARK  146  A    between atoms: _352  and  _355
REMARK  147  A    between atoms: _355  and  _356
REMARK  148  A    between atoms: _359  and  _361
REMARK  149  A    between atoms: _361  and  _362
REMARK  150  A    between atoms: _361  and  _364
REMARK  151  A    between atoms: _364  and  _365
REMARK  152  A    between atoms: _368  and  _370
REMARK  153  A    between atoms: _370  and  _371
REMARK  154  A    between atoms: _370  and  _373
REMARK  155  A    between atoms: _373  and  _374
REMARK  156  A    between atoms: _379  and  _381
REMARK  157  A    between atoms: _381  and  _382
REMARK  158  A    between atoms: _381  and  _384
REMARK  159  A    between atoms: _384  and  _385
REMARK  160  A    between atoms: _391  and  _393
REMARK  161  A    between atoms: _393  and  _394
REMARK  162  A    between atoms: _393  and  _396
REMARK  163  A    between atoms: _396  and  _397
REMARK  164  A    between atoms: _397  and  _398
REMARK  165  A    between atoms: _403  and  _405
REMARK  166  A    between atoms: _405  and  _406
REMARK  167  A    between atoms: _408  and  _410
REMARK  168  A    between atoms: _410  and  _411
REMARK  169  A    between atoms: _410  and  _413
REMARK  170  A    between atoms: _413  and  _414
REMARK  171  A    between atoms: _417  and  _419
REMARK  172  A    between atoms: _419  and  _420
REMARK  173  A    between atoms: _419  and  _422
REMARK  174  A    between atoms: _422  and  _423
REMARK  175  A    between atoms: _426  and  _428
REMARK  176  A    between atoms: _428  and  _429
REMARK  177  A    between atoms: _428  and  _431
REMARK  178  A    between atoms: _431  and  _432
REMARK  179  A    between atoms: _437  and  _438
REMARK  180  A    between atoms: _440  and  _442
REMARK  181  A    between atoms: _442  and  _443
REMARK  182  A    between atoms: _442  and  _445
REMARK  183  A    between atoms: _448  and  _450
REMARK  184  A    between atoms: _450  and  _451
REMARK  185  A    between atoms: _454  and  _456
REMARK  186  A    between atoms: _456  and  _457
REMARK  187  A    between atoms: _456  and  _459
REMARK  188  A    between atoms: _459  and  _460
REMARK  189  A    between atoms: _463  and  _465
REMARK  190  A    between atoms: _465  and  _466
REMARK  191  A    between atoms: _465  and  _468
REMARK  192  A    between atoms: _468  and  _469
REMARK  193  A    between atoms: _469  and  _470
REMARK  194  A    between atoms: _473  and  _475
REMARK  195  A    between atoms: _475  and  _476
REMARK  196  A    between atoms: _475  and  _478
REMARK  197  A    between atoms: _478  and  _479
REMARK  198  A    between atoms: _479  and  _480
REMARK  199  A    between atoms: _483  and  _485
REMARK  200  A    between atoms: _485  and  _486
REMARK  201  A    between atoms: _485  and  _488
REMARK  202  A    between atoms: _488  and  _489
REMARK  203  A    between atoms: _492  and  _494
REMARK  204  A    between atoms: _494  and  _495
REMARK  205  A    between atoms: _494  and  _497
REMARK  206  A    between atoms: _497  and  _498
REMARK  207  A    between atoms: _503  and  _505
REMARK  208  A    between atoms: _505  and  _506
REMARK  209  A    between atoms: _508  and  _510
REMARK  210  A    between atoms: _510  and  _511
REMARK  211  A    between atoms: _510  and  _513
REMARK  212  A    between atoms: _513  and  _514
REMARK  213  A    between atoms: _516  and  _518
REMARK  214  A    between atoms: _518  and  _519
REMARK  215  A    between atoms: _518  and  _521
REMARK  216  A    between atoms: _521  and  _522
REMARK  217  A    between atoms: _527  and  _529
REMARK  218  A    between atoms: _529  and  _530
REMARK  219  A    between atoms: _529  and  _532
REMARK  220  A    between atoms: _532  and  _533
REMARK  221  A    between atoms: _536  and  _538
REMARK  222  A    between atoms: _538  and  _539
REMARK  223  A    between atoms: _538  and  _541
REMARK  224  A    between atoms: _541  and  _542
REMARK  225  A    between atoms: _545  and  _547
REMARK  226  A    between atoms: _547  and  _548
REMARK  227  A    between atoms: _547  and  _550
REMARK  228  A    between atoms: _550  and  _551
REMARK  229  A    between atoms: _551  and  _552
REMARK  230  A    between atoms: _552  and  _553
REMARK  231  A    between atoms: _562  and  _564
REMARK  232  A    between atoms: _564  and  _565
REMARK  233  A    between atoms: _564  and  _567
REMARK  234  A    between atoms: _567  and  _568
REMARK  235  A    between atoms: _573  and  _575
REMARK  236  A    between atoms: _575  and  _576
REMARK  237  A    between atoms: _575  and  _578
REMARK  238  A    between atoms: _578  and  _579
REMARK  239  A    between atoms: _579  and  _580
REMARK  240  A    between atoms: _583  and  _585
REMARK  241  A    between atoms: _585  and  _586
REMARK  242  A    between atoms: _589  and  _591
REMARK  243  A    between atoms: _591  and  _592
REMARK  244  A    between atoms: _591  and  _594
REMARK  245  A    between atoms: _597  and  _599
REMARK  246  A    between atoms: _599  and  _600
REMARK  247  A    between atoms: _599  and  _602
REMARK  248  A    between atoms: _602  and  _603
REMARK  249  A    between atoms: _606  and  _608
REMARK  250  A    between atoms: _608  and  _609
REMARK  251  A    between atoms: _612  and  _614
REMARK  252  A    between atoms: _614  and  _615
REMARK  253  A    between atoms: _617  and  _619
REMARK  254  A    between atoms: _619  and  _620
REMARK  255  A    between atoms: _622  and  _624
REMARK  256  A    between atoms: _624  and  _625
REMARK  257  A    between atoms: _627  and  _629
REMARK  258  A    between atoms: _629  and  _630
REMARK  259  A    between atoms: _629  and  _632
REMARK  260  A    between atoms: _632  and  _633
REMARK  261  A    between atoms: _639  and  _641
REMARK  262  A    between atoms: _641  and  _642
REMARK  263  A    between atoms: _641  and  _644
REMARK  264  A    between atoms: _644  and  _645
REMARK  265  A    between atoms: _648  and  _650
REMARK  266  A    between atoms: _650  and  _651
REMARK  267  A    between atoms: _650  and  _653
REMARK  268  A    between atoms: _653  and  _654
REMARK  269  A    between atoms: _659  and  _661
REMARK  270  A    between atoms: _661  and  _662
REMARK  271  A    between atoms: _665  and  _667
REMARK  272  A    between atoms: _667  and  _668
REMARK  273  A    between atoms: _667  and  _670
REMARK  274  A    between atoms: _670  and  _671
REMARK  275  A    between atoms: _674  and  _676
REMARK  276  A    between atoms: _676  and  _677
REMARK  277  A    between atoms: _676  and  _679
REMARK  278  A    between atoms: _679  and  _680
REMARK  279  A    between atoms: _680  and  _681
REMARK  280  A    between atoms: _686  and  _688
REMARK  281  A    between atoms: _688  and  _689
REMARK  282  A    between atoms: _688  and  _691
REMARK  283  A    between atoms: _691  and  _692
REMARK                            x       y       z     vdW  Elec       q    Type
REMARK                         _______ _______ _______ _____ _____    ______ ____
ROOT
ATOM      1  C   GLU A   1      -7.865 -41.985 -18.497  0.00  0.00    +0.238 C 
ATOM      2  O   GLU A   1      -6.760 -41.658 -18.056  0.00  0.00    -0.274 OA
ATOM      3  N   GLU A   2      -8.231 -41.785 -19.765  0.00  0.00    -0.298 N 
ATOM      4  H   GLU A   2      -9.154 -42.142 -20.083  0.00  0.00    +0.150 HD
ENDROOT
BRANCH   1   5
ATOM      5  CA  GLU A   1      -8.889 -42.658 -17.578  0.00  0.00    +0.145 C 
BRANCH   5   6
ATOM      6  N   GLU A   1     -10.274 -42.522 -18.037  0.00  0.00    -0.238 NA
ATOM      7  H   GLU A   1     -10.765 -43.364 -18.400  0.00  0.00    +0.142 HD
ENDBRANCH   5   6
BRANCH   5   8
ATOM      8  CB  GLU A   1      -8.530 -44.134 -17.374  0.00  0.00    +0.038 C 
BRANCH   8   9
ATOM      9  CG  GLU A   1      -9.153 -44.769 -16.136  0.00  0.00    +0.116 C 
BRANCH   9  10
ATOM     10  CD  GLU A   1      -8.522 -44.284 -14.843  0.00  0.00    +0.365 C 
ATOM     11  OE2 GLU A   1      -9.218 -43.603 -14.061  0.00  0.00    -0.246 OA
ATOM     12  OE1 GLU A   1      -7.336 -44.593 -14.601  0.00  0.00    -0.246 OA
ENDBRANCH   9  10
ENDBRANCH   8   9
ENDBRANCH   5   8
ENDBRANCH   1   5
BRANCH   3  13
ATOM     13  CA  GLU A   2      -7.376 -41.079 -20.725  0.00  0.00    +0.137 C 
BRANCH  13  14
ATOM     14  C   GLU A   2      -7.256 -39.594 -20.380  0.00  0.00    +0.227 C 
ATOM     15  O   GLU A   2      -6.158 -39.030 -20.411  0.00  0.00    -0.286 OA
ENDBRANCH  13  14
BRANCH  13  16
ATOM     16  CB  GLU A   2      -7.881 -41.269 -22.164  0.00  0.00    +0.039 C 
BRANCH  16  17
ATOM     17  CG  GLU A   2      -7.355 -40.239 -23.169  0.00  0.00    +0.116 C 
BRANCH  17  18
ATOM     18  CD  GLU A   2      -7.467 -40.699 -24.609  0.00  0.00    +0.365 C 
ATOM     19  OE2 GLU A   2      -6.590 -41.470 -25.055  0.00  0.00    -0.246 OA
ATOM     20  OE1 GLU A   2      -8.418 -40.276 -25.300  0.00  0.00    -0.246 OA
ENDBRANCH  17  18
ENDBRANCH  16  17
ENDBRANCH  13  16
ENDBRANCH   3  13
TORSDOF 10
REMARK  Name = ../refined-set-2016/3iae/3iae_pocket.pdb
REMARK  283 active torsions:
REMARK  status: ('A' for Active; 'I' for Inactive)
REMARK    1  A    between atoms: _1  and  _3
REMARK    2  A    between atoms: _3  and  _4
REMARK    3  A    between atoms: _3  and  _6
REMARK    4  A    between atoms: _6  and  _7
REMARK    5  A    between atoms: _10  and  _12
REMARK    6  A    between atoms: _12  and  _13
REMARK    7  A    between atoms: _12  and  _15
REMARK    8  A    between atoms: _15  and  _16
REMARK    9  A    between atoms: _21  and  _22
REMARK   10  A    between atoms: _24  and  _26
REMARK   11  A    between atoms: _26  and  _27
REMARK   12  A    between atoms: _26  and  _29
REMARK   13  A    between atoms: _29  and  _30
REMARK   14  A    between atoms: _34  and  _35
REMARK   15  A    between atoms: _40  and  _42
REMARK   16  A    between atoms: _42  and  _43
REMARK   17  A    between atoms: _42  and  _45
REMARK   18  A    between atoms: _45  and  _46
REMARK   19  A    between atoms: _49  and  _51
REMARK   20  A    between atoms: _51  and  _52
REMARK   21  A    between atoms: _54  and  _56
REMARK   22  A    between atoms: _56  and  _57
REMARK   23  A    between atoms: _60  and  _62
REMARK   24  A    between atoms: _62  and  _63
REMARK   25  A    between atoms: _62  and  _65
REMARK   26  A    between atoms: _65  and  _66
REMARK   27  A    between atoms: _69  and  _71
REMARK   28  A    between atoms: _71  and  _72
REMARK   29  A    between atoms: _71  and  _74
REMARK   30  A    between atoms: _74  and  _75
REMARK   31  A    between atoms: _78  and  _80
REMARK   32  A    between atoms: _80  and  _81
REMARK   33  A    between atoms: _80  and  _83
REMARK   34  A    between atoms: _83  and  _84
REMARK   35  A    between atoms: _89  and  _90
REMARK   36  A    between atoms: _92  and  _94
REMARK   37  A    between atoms: _94  and  _95
REMARK   38  A    between atoms: _94  and  _97
REMARK   39  A    between atoms: _97  and  _98
REMARK   40  A    between atoms: _101  and  _103
REMARK   41  A    between atoms: _103  and  _104
REMARK   42  A    between atoms: _103  and  _106
REMARK   43  A    between atoms: _106  and  _107
REMARK   44  A    between atoms: _117  and  _119
REMARK   45  A    between atoms: _119  and  _120
REMARK   46  A    between atoms: _119  and  _122
REMARK   47  A    between atoms: _122  and  _123
REMARK   48  A    between atoms: _126  and  _128
REMARK   49  A    between atoms: _128  and  _129
REMARK   50  A    between atoms: _128  and  _131
REMARK   51  A    between atoms: _131  and  _132
REMARK   52  A    between atoms: _137  and  _139
REMARK   53  A    between atoms: _139  and  _140
REMARK   54  A    between atoms: _142  and  _144
REMARK   55  A    between atoms: _144  and  _145
REMARK   56  A    between atoms: _144  and  _147
REMARK   57  A    between atoms: _147  and  _148
REMARK   58  A    between atoms: _153  and  _154
REMARK   59  A    between atoms: _156  and  _158
REMARK   60  A    between atoms: _158  and  _159
REMARK   61  A    between atoms: _158  and  _161
REMARK   62  A    between atoms: _161  and  _162
REMARK   63  A    between atoms: _165  and  _167
REMARK   64  A    between atoms: _167  and  _168
REMARK   65  A    between atoms: _170  and  _172
REMARK   66  A    between atoms: _172  and  _173
REMARK   67  A    between atoms: _172  and  _175
REMARK   68  A    between atoms: _175  and  _176
REMARK   69  A    between atoms: _178  and  _180
REMARK   70  A    between atoms: _180  and  _181
REMARK   71  A    between atoms: _180  and  _183
REMARK   72  A    between atoms: _183  and  _184
REMARK   73  A    between atoms: _184  and  _185
REMARK   74  A    between atoms: _187  and  _189
REMARK   75  A    between atoms: _189  and  _190
REMARK   76  A    between atoms: _192  and  _194
REMARK   77  A    between atoms: _194  and  _195
REMARK   78  A    between atoms: _194  and  _197
REMARK   79  A    between atoms: _200  and  _202
REMARK   80  A    between atoms: _202  and  _203
REMARK   81  A    between atoms: _202  and  _205
REMARK   82  A    between atoms: _205  and  _206
REMARK   83  A    between atoms: _209  and  _211
REMARK   84  A    between atoms: _211  and  _212
REMARK   85  A    between atoms: _214  and  _216
REMARK   86  A    between atoms: _216  and  _217
REMARK   87  A    between atoms: _216  and  _219
REMARK   88  A    between atoms: _219  and  _220
REMARK   89  A    between atoms: _220  and  _221
REMARK   90  A    between atoms: _221  and  CA_702
REMARK   91  A    between atoms: _223  and  _225
REMARK   92  A    between atoms: _225  and  _226
REMARK   93  A    between atoms: _228  and  _230
REMARK   94  A    between atoms: _230  and  _231
REMARK   95  A    between atoms: _230  and  _233
REMARK   96  A    between atoms: _233  and  _234
REMARK   97  A    between atoms: _236  and  _238
REMARK   98  A    between atoms: _238  and  _239
REMARK   99  A    between atoms: _238  and  _241
REMARK  100  A    between atoms: _244  and  _246
REMARK  101  A    between atoms: _246  and  _247
REMARK  102  A    between atoms: _249  and  _251
REMARK  103  A    between atoms: _251  and  _252
REMARK  104  A    between atoms: _251  and  _254
REMARK  105  A    between atoms: _254  and  _255
REMARK  106  A    between atoms: _260  and  _261
REMARK  107  A    between atoms: _263  and  _265
REMARK  108  A    between atoms: _265  and  _266
REMARK  109  A    between atoms: _265  and  _268
REMARK  110  A    between atoms: _268  and  _269
REMARK  111  A    between atoms: _272  and  _274
REMARK  112  A    between atoms: _274  and  _275
REMARK  113  A    between atoms: _274  and  _277
REMARK  114  A    between atoms: _275  and  _276
REMARK  115  A    between atoms: _275  and  _281
REMARK  116  A    between atoms: _276  and  CA_702
REMARK  117  A    between atoms: _277  and  _278
REMARK  118  A    between atoms: _278  and  _279
REMARK  119  A    between atoms: _281  and  _283
REMARK  120  A    between atoms: _283  and  _284
REMARK  121  A    between atoms: _283  and  _286
REMARK  122  A    between atoms: _286  and  _287
REMARK  123  A    between atoms: _292  and  _294
REMARK  124  A    between atoms: _294  and  _295
REMARK  125  A    between atoms: _294  and  _297
REMARK  126  A    between atoms: _297  and  _298
REMARK  127  A    between atoms: _303  and  _305
REMARK  128  A    between atoms: _305  and  _306
REMARK  129  A    between atoms: _305  and  _308
REMARK  130  A    between atoms: _308  and  _309
REMARK  131  A    between atoms: _309  and  _310
REMARK  132  A    between atoms: _315  and  _317
REMARK  133  A    between atoms: _317  and  _318
REMARK  134  A    between atoms: _317  and  _320
REMARK  135  A    between atoms: _320  and  _321
REMARK  136  A    between atoms: _323  and  _325
REMARK  137  A    between atoms: _325  and  _326
REMARK  138  A    between atoms: _325  and  _328
REMARK  139  A    between atoms: _328  and  _329
REMARK  140  A    between atoms: _339  and  _341
REMARK  141  A    between atoms: _341  and  _342
REMARK  142  A    between atoms: _344  and  _346
REMARK  143  A    between atoms: _346  and  _347
REMARK  144  A    between atoms: _350  and  _352
REMARK  145  A    between atoms: _352  and  _353
REMARK  146  A    between atoms: _352  and  _355
REMARK  147  A    between atoms: _355  and  _356
REMARK  148  A    between atoms: _359  and  _361
REMARK  149  A    between atoms: _361  and  _362
REMARK  150  A    between atoms: _361  and  _364
REMARK  151  A    between atoms: _364  and  _365
REMARK  152  A    between atoms: _368  and  _370
REMARK  153  A    between atoms: _370  and  _371
REMARK  154  A    between atoms: _370  and  _373
REMARK  155  A    between atoms: _373  and  _374
REMARK  156  A    between atoms: _379  and  _381
REMARK  157  A    between atoms: _381  and  _382
REMARK  158  A    between atoms: _381  and  _384
REMARK  159  A    between atoms: _384  and  _385
REMARK  160  A    between atoms: _391  and  _393
REMARK  161  A    between atoms: _393  and  _394
REMARK  162  A    between atoms: _393  and  _396
REMARK  163  A    between atoms: _396  and  _397
REMARK  164  A    between atoms: _397  and  _398
REMARK  165  A    between atoms: _403  and  _405
REMARK  166  A    between atoms: _405  and  _406
REMARK  167  A    between atoms: _408  and  _410
REMARK  168  A    between atoms: _410  and  _411
REMARK  169  A    between atoms: _410  and  _413
REMARK  170  A    between atoms: _413  and  _414
REMARK  171  A    between atoms: _417  and  _419
REMARK  172  A    between atoms: _419  and  _420
REMARK  173  A    between atoms: _419  and  _422
REMARK  174  A    between atoms: _422  and  _423
REMARK  175  A    between atoms: _426  and  _428
REMARK  176  A    between atoms: _428  and  _429
REMARK  177  A    between atoms: _428  and  _431
REMARK  178  A    between atoms: _431  and  _432
REMARK  179  A    between atoms: _437  and  _438
REMARK  180  A    between atoms: _440  and  _442
REMARK  181  A    between atoms: _442  and  _443
REMARK  182  A    between atoms: _442  and  _445
REMARK  183  A    between atoms: _448  and  _450
REMARK  184  A    between atoms: _450  and  _451
REMARK  185  A    between atoms: _454  and  _456
REMARK  186  A    between atoms: _456  and  _457
REMARK  187  A    between atoms: _456  and  _459
REMARK  188  A    between atoms: _459  and  _460
REMARK  189  A    between atoms: _463  and  _465
REMARK  190  A    between atoms: _465  and  _466
REMARK  191  A    between atoms: _465  and  _468
REMARK  192  A    between atoms: _468  and  _469
REMARK  193  A    between atoms: _469  and  _470
REMARK  194  A    between atoms: _473  and  _475
REMARK  195  A    between atoms: _475  and  _476
REMARK  196  A    between atoms: _475  and  _478
REMARK  197  A    between atoms: _478  and  _479
REMARK  198  A    between atoms: _479  and  _480
REMARK  199  A    between atoms: _483  and  _485
REMARK  200  A    between atoms: _485  and  _486
REMARK  201  A    between atoms: _485  and  _488
REMARK  202  A    between atoms: _488  and  _489
REMARK  203  A    between atoms: _492  and  _494
REMARK  204  A    between atoms: _494  and  _495
REMARK  205  A    between atoms: _494  and  _497
REMARK  206  A    between atoms: _497  and  _498
REMARK  207  A    between atoms: _503  and  _505
REMARK  208  A    between atoms: _505  and  _506
REMARK  209  A    between atoms: _508  and  _510
REMARK  210  A    between atoms: _510  and  _511
REMARK  211  A    between atoms: _510  and  _513
REMARK  212  A    between atoms: _513  and  _514
REMARK  213  A    between atoms: _516  and  _518
REMARK  214  A    between atoms: _518  and  _519
REMARK  215  A    between atoms: _518  and  _521
REMARK  216  A    between atoms: _521  and  _522
REMARK  217  A    between atoms: _527  and  _529
REMARK  218  A    between atoms: _529  and  _530
REMARK  219  A    between atoms: _529  and  _532
REMARK  220  A    between atoms: _532  and  _533
REMARK  221  A    between atoms: _536  and  _538
REMARK  222  A    between atoms: _538  and  _539
REMARK  223  A    between atoms: _538  and  _541
REMARK  224  A    between atoms: _541  and  _542
REMARK  225  A    between atoms: _545  and  _547
REMARK  226  A    between atoms: _547  and  _548
REMARK  227  A    between atoms: _547  and  _550
REMARK  228  A    between atoms: _550  and  _551
REMARK  229  A    between atoms: _551  and  _552
REMARK  230  A    between atoms: _552  and  _553
REMARK  231  A    between atoms: _562  and  _564
REMARK  232  A    between atoms: _564  and  _565
REMARK  233  A    between atoms: _564  and  _567
REMARK  234  A    between atoms: _567  and  _568
REMARK  235  A    between atoms: _573  and  _575
REMARK  236  A    between atoms: _575  and  _576
REMARK  237  A    between atoms: _575  and  _578
REMARK  238  A    between atoms: _578  and  _579
REMARK  239  A    between atoms: _579  and  _580
REMARK  240  A    between atoms: _583  and  _585
REMARK  241  A    between atoms: _585  and  _586
REMARK  242  A    between atoms: _589  and  _591
REMARK  243  A    between atoms: _591  and  _592
REMARK  244  A    between atoms: _591  and  _594
REMARK  245  A    between atoms: _597  and  _599
REMARK  246  A    between atoms: _599  and  _600
REMARK  247  A    between atoms: _599  and  _602
REMARK  248  A    between atoms: _602  and  _603
REMARK  249  A    between atoms: _606  and  _608
REMARK  250  A    between atoms: _608  and  _609
REMARK  251  A    between atoms: _612  and  _614
REMARK  252  A    between atoms: _614  and  _615
REMARK  253  A    between atoms: _617  and  _619
REMARK  254  A    between atoms: _619  and  _620
REMARK  255  A    between atoms: _622  and  _624
REMARK  256  A    between atoms: _624  and  _625
REMARK  257  A    between atoms: _627  and  _629
REMARK  258  A    between atoms: _629  and  _630
REMARK  259  A    between atoms: _629  and  _632
REMARK  260  A    between atoms: _632  and  _633
REMARK  261  A    between atoms: _639  and  _641
REMARK  262  A    between atoms: _641  and  _642
REMARK  263  A    between atoms: _641  and  _644
REMARK  264  A    between atoms: _644  and  _645
REMARK  265  A    between atoms: _648  and  _650
REMARK  266  A    between atoms: _650  and  _651
REMARK  267  A    between atoms: _650  and  _653
REMARK  268  A    between atoms: _653  and  _654
REMARK  269  A    between atoms: _659  and  _661
REMARK  270  A    between atoms: _661  and  _662
REMARK  271  A    between atoms: _665  and  _667
REMARK  272  A    between atoms: _667  and  _668
REMARK  273  A    between atoms: _667  and  _670
REMARK  274  A    between atoms: _670  and  _671
REMARK  275  A    between atoms: _674  and  _676
REMARK  276  A    between atoms: _676  and  _677
REMARK  277  A    between atoms: _676  and  _679
REMARK  278  A    between atoms: _679  and  _680
REMARK  279  A    between atoms: _680  and  _681
REMARK  280  A    between atoms: _686  and  _688
REMARK  281  A    between atoms: _688  and  _689
REMARK  282  A    between atoms: _688  and  _691
REMARK  283  A    between atoms: _691  and  _692
REMARK                            x       y       z     vdW  Elec       q    Type
REMARK                         _______ _______ _______ _____ _____    ______ ____
ROOT
ATOM      1  CA  SER A   4       3.151 -38.700 -27.339  0.00  0.00    +0.178 C 
ENDROOT
BRANCH   1   3
ATOM      2  C   GLY A   3       4.416 -40.240 -28.772  0.00  0.00    +0.243 C 
ATOM      3  N   SER A   4       3.564 -40.041 -27.767  0.00  0.00    -0.295 N 
ATOM      4  H   SER A   4       3.177 -40.867 -27.267  0.00  0.00    +0.150 HD
ATOM      5  O   GLY A   3       4.913 -39.323 -29.424  0.00  0.00    -0.273 OA
BRANCH   2   6
ATOM      6  CA  GLY A   3       4.760 -41.681 -29.096  0.00  0.00    +0.176 C 
BRANCH   6   8
ATOM      7  C   HIS A   2       4.806 -42.914 -31.218  0.00  0.00    +0.241 C 
ATOM      8  N   GLY A   3       5.022 -41.800 -30.524  0.00  0.00    -0.295 N 
ATOM      9  H   GLY A   3       5.397 -40.971 -31.027  0.00  0.00    +0.150 HD
ATOM     10  O   HIS A   2       4.558 -44.005 -30.700  0.00  0.00    -0.273 OA
BRANCH   7  11
ATOM     11  CA  HIS A   2       4.898 -42.759 -32.737  0.00  0.00    +0.155 C 
BRANCH  11  14
ATOM     12  C   LEU A   1       6.709 -44.308 -33.231  0.00  0.00    +0.238 C 
ATOM     13  O   LEU A   1       7.451 -43.778 -32.400  0.00  0.00    -0.274 OA
ATOM     14  N   HIS A   2       5.451 -43.923 -33.428  0.00  0.00    -0.297 N 
ATOM     15  H   HIS A   2       4.850 -44.460 -34.085  0.00  0.00    +0.150 HD
BRANCH  12  16
ATOM     16  CA  LEU A   1       7.221 -45.452 -34.094  0.00  0.00    +0.145 C 
BRANCH  16  17
ATOM     17  N   LEU A   1       8.509 -44.984 -34.581  0.00  0.00    -0.238 NA
ATOM     18  H   LEU A   1       9.090 -44.411 -33.937  0.00  0.00    +0.142 HD
ENDBRANCH  16  17
BRANCH  16  19
ATOM     19  CB  LEU A   1       7.406 -46.715 -33.243  0.00  0.00    +0.026 C 
BRANCH  19  20
ATOM     20  CG  LEU A   1       6.296 -47.733 -32.910  0.00  0.00    +0.002 C 
ATOM     21  CD2 LEU A   1       4.974 -47.103 -32.465  0.00  0.00    +0.000 C 
ATOM     22  CD1 LEU A   1       6.073 -48.701 -34.052  0.00  0.00    +0.000 C 
ENDBRANCH  19  20
ENDBRANCH  16  19
ENDBRANCH  12  16
ENDBRANCH  11  14
BRANCH  11  23
ATOM     23  CB  HIS A   2       3.529 -42.372 -33.304  0.00  0.00    +0.076 C 
BRANCH  23  24
ATOM     24  CG  HIS A   2       2.997 -41.087 -32.751  0.00  0.00    +0.082 A 
ATOM     25  CD2 HIS A   2       2.267 -40.829 -31.641  0.00  0.00    +0.115 A 
ATOM     26  NE2 HIS A   2       2.063 -39.472 -31.593  0.00  0.00    -0.221 NA
ATOM     27  CE1 HIS A   2       2.655 -38.914 -32.633  0.00  0.00    +0.199 A 
ATOM     28  ND1 HIS A   2       3.231 -39.866 -33.346  0.00  0.00    -0.227 NA
ENDBRANCH  23  24
ENDBRANCH  11  23
ENDBRANCH   7  11
ENDBRANCH   6   8
ENDBRANCH   2   6
ENDBRANCH   1   3
BRANCH   1  29
ATOM     29  C   SER A   4       4.331 -37.845 -26.872  0.00  0.00    +0.243 C 
ATOM     30  N   HIS A   5       5.360 -38.510 -26.353  0.00  0.00    -0.297 N 
ATOM     31  H   HIS A   5       5.294 -39.545 -26.275  0.00  0.00    +0.150 HD
ATOM     32  O   SER A   4       4.308 -36.617 -26.991  0.00  0.00    -0.273 OA
BRANCH  30  33
ATOM     33  CA  HIS A   5       6.576 -37.853 -25.889  0.00  0.00    +0.155 C 
BRANCH  33  34
ATOM     34  C   HIS A   5       7.372 -37.233 -27.037  0.00  0.00    +0.241 C 
ATOM     35  O   HIS A   5       8.077 -36.242 -26.842  0.00  0.00    -0.273 OA
ATOM     36  N   ILE A   6       7.245 -37.816 -28.228  0.00  0.00    -0.297 N 
ATOM     37  H   ILE A   6       6.607 -38.633 -28.318  0.00  0.00    +0.150 HD
BRANCH  36  38
ATOM     38  CA  ILE A   6       7.968 -37.353 -29.418  0.00  0.00    +0.149 C 
BRANCH  38  39
ATOM     39  C   ILE A   6       7.053 -36.773 -30.508  0.00  0.00    +0.241 C 
ATOM     40  N   ASP A   7       5.817 -36.437 -30.141  0.00  0.00    -0.298 N 
ATOM     41  H   ASP A   7       5.533 -36.561 -29.148  0.00  0.00    +0.150 HD
ATOM     42  O   ILE A   6       7.472 -36.630 -31.662  0.00  0.00    -0.273 OA
BRANCH  40  43
ATOM     43  CA  ASP A   7       4.845 -35.897 -31.100  0.00  0.00    +0.148 C 
BRANCH  43  44
ATOM     44  C   ASP A   7       5.276 -34.572 -31.730  0.00  0.00    +0.227 C 
ATOM     45  O   ASP A   7       4.980 -34.316 -32.898  0.00  0.00    -0.286 OA
ENDBRANCH  43  44
BRANCH  43  46
ATOM     46  CB  ASP A   7       3.458 -35.744 -30.463  0.00  0.00    +0.142 C 
BRANCH  46  47
ATOM     47  CG  ASP A   7       2.394 -35.348 -31.477  0.00  0.00    +0.367 C 
ATOM     48  OD2 ASP A   7       1.757 -34.288 -31.295  0.00  0.00    -0.246 OA
ATOM     49  OD1 ASP A   7       2.197 -36.090 -32.462  0.00  0.00    -0.246 OA
ENDBRANCH  46  47
ENDBRANCH  43  46
ENDBRANCH  40  43
ENDBRANCH  38  39
BRANCH  38  50
ATOM     50  CB  ILE A   6       8.854 -38.476 -30.027  0.00  0.00    +0.027 C 
ATOM     51  CG2 ILE A   6      10.067 -38.740 -29.136  0.00  0.00    +0.002 C 
BRANCH  50  52
ATOM     52  CG1 ILE A   6       8.029 -39.750 -30.266  0.00  0.00    +0.002 C 
ATOM     53  CD1 ILE A   6       8.671 -40.762 -31.196  0.00  0.00    +0.000 C 
ENDBRANCH  50  52
ENDBRANCH  38  50
ENDBRANCH  36  38
ENDBRANCH  33  34
BRANCH  33  54
ATOM     54  CB  HIS A   5       7.450 -38.844 -25.116  0.00  0.00    +0.076 C 
BRANCH  54  55
ATOM     55  CG  HIS A   5       6.825 -39.344 -23.850  0.00  0.00    +0.082 A 
ATOM     56  CD2 HIS A   5       7.149 -39.133 -22.553  0.00  0.00    +0.115 A 
ATOM     57  NE2 HIS A   5       6.248 -39.835 -21.790  0.00  0.00    -0.221 NA
ATOM     58  CE1 HIS A   5       5.402 -40.457 -22.590  0.00  0.00    +0.199 A 
ATOM     59  ND1 HIS A   5       5.729 -40.180 -23.839  0.00  0.00    -0.227 NA
ENDBRANCH  54  55
ENDBRANCH  33  54
ENDBRANCH  30  33
ENDBRANCH   1  29
BRANCH   1  60
ATOM     60  CB  SER A   4       2.097 -38.788 -26.235  0.00  0.00    +0.166 C 
BRANCH  60  61
ATOM     61  OG  SER A   4       0.913 -39.404 -26.713  0.00  0.00    -0.380 OA
ATOM     62  H   SER A   4       1.122 -40.319 -27.027  0.00  0.00    +0.211 HD
ENDBRANCH  60  61
ENDBRANCH   1  60
TORSDOF 26
REMARK  Name = ../refined-set-2016/3iae/3iae_pocket.pdb
REMARK  283 active torsions:
REMARK  status: ('A' for Active; 'I' for Inactive)
REMARK    1  A    between atoms: _1  and  _3
REMARK    2  A    between atoms: _3  and  _4
REMARK    3  A    between atoms: _3  and  _6
REMARK    4  A    between atoms: _6  and  _7
REMARK    5  A    between atoms: _10  and  _12
REMARK    6  A    between atoms: _12  and  _13
REMARK    7  A    between atoms: _12  and  _15
REMARK    8  A    between atoms: _15  and  _16
REMARK    9  A    between atoms: _21  and  _22
REMARK   10  A    between atoms: _24  and  _26
REMARK   11  A    between atoms: _26  and  _27
REMARK   12  A    between atoms: _26  and  _29
REMARK   13  A    between atoms: _29  and  _30
REMARK   14  A    between atoms: _34  and  _35
REMARK   15  A    between atoms: _40  and  _42
REMARK   16  A    between atoms: _42  and  _43
REMARK   17  A    between atoms: _42  and  _45
REMARK   18  A    between atoms: _45  and  _46
REMARK   19  A    between atoms: _49  and  _51
REMARK   20  A    between atoms: _51  and  _52
REMARK   21  A    between atoms: _54  and  _56
REMARK   22  A    between atoms: _56  and  _57
REMARK   23  A    between atoms: _60  and  _62
REMARK   24  A    between atoms: _62  and  _63
REMARK   25  A    between atoms: _62  and  _65
REMARK   26  A    between atoms: _65  and  _66
REMARK   27  A    between atoms: _69  and  _71
REMARK   28  A    between atoms: _71  and  _72
REMARK   29  A    between atoms: _71  and  _74
REMARK   30  A    between atoms: _74  and  _75
REMARK   31  A    between atoms: _78  and  _80
REMARK   32  A    between atoms: _80  and  _81
REMARK   33  A    between atoms: _80  and  _83
REMARK   34  A    between atoms: _83  and  _84
REMARK   35  A    between atoms: _89  and  _90
REMARK   36  A    between atoms: _92  and  _94
REMARK   37  A    between atoms: _94  and  _95
REMARK   38  A    between atoms: _94  and  _97
REMARK   39  A    between atoms: _97  and  _98
REMARK   40  A    between atoms: _101  and  _103
REMARK   41  A    between atoms: _103  and  _104
REMARK   42  A    between atoms: _103  and  _106
REMARK   43  A    between atoms: _106  and  _107
REMARK   44  A    between atoms: _117  and  _119
REMARK   45  A    between atoms: _119  and  _120
REMARK   46  A    between atoms: _119  and  _122
REMARK   47  A    between atoms: _122  and  _123
REMARK   48  A    between atoms: _126  and  _128
REMARK   49  A    between atoms: _128  and  _129
REMARK   50  A    between atoms: _128  and  _131
REMARK   51  A    between atoms: _131  and  _132
REMARK   52  A    between atoms: _137  and  _139
REMARK   53  A    between atoms: _139  and  _140
REMARK   54  A    between atoms: _142  and  _144
REMARK   55  A    between atoms: _144  and  _145
REMARK   56  A    between atoms: _144  and  _147
REMARK   57  A    between atoms: _147  and  _148
REMARK   58  A    between atoms: _153  and  _154
REMARK   59  A    between atoms: _156  and  _158
REMARK   60  A    between atoms: _158  and  _159
REMARK   61  A    between atoms: _158  and  _161
REMARK   62  A    between atoms: _161  and  _162
REMARK   63  A    between atoms: _165  and  _167
REMARK   64  A    between atoms: _167  and  _168
REMARK   65  A    between atoms: _170  and  _172
REMARK   66  A    between atoms: _172  and  _173
REMARK   67  A    between atoms: _172  and  _175
REMARK   68  A    between atoms: _175  and  _176
REMARK   69  A    between atoms: _178  and  _180
REMARK   70  A    between atoms: _180  and  _181
REMARK   71  A    between atoms: _180  and  _183
REMARK   72  A    between atoms: _183  and  _184
REMARK   73  A    between atoms: _184  and  _185
REMARK   74  A    between atoms: _187  and  _189
REMARK   75  A    between atoms: _189  and  _190
REMARK   76  A    between atoms: _192  and  _194
REMARK   77  A    between atoms: _194  and  _195
REMARK   78  A    between atoms: _194  and  _197
REMARK   79  A    between atoms: _200  and  _202
REMARK   80  A    between atoms: _202  and  _203
REMARK   81  A    between atoms: _202  and  _205
REMARK   82  A    between atoms: _205  and  _206
REMARK   83  A    between atoms: _209  and  _211
REMARK   84  A    between atoms: _211  and  _212
REMARK   85  A    between atoms: _214  and  _216
REMARK   86  A    between atoms: _216  and  _217
REMARK   87  A    between atoms: _216  and  _219
REMARK   88  A    between atoms: _219  and  _220
REMARK   89  A    between atoms: _220  and  _221
REMARK   90  A    between atoms: _221  and  CA_702
REMARK   91  A    between atoms: _223  and  _225
REMARK   92  A    between atoms: _225  and  _226
REMARK   93  A    between atoms: _228  and  _230
REMARK   94  A    between atoms: _230  and  _231
REMARK   95  A    between atoms: _230  and  _233
REMARK   96  A    between atoms: _233  and  _234
REMARK   97  A    between atoms: _236  and  _238
REMARK   98  A    between atoms: _238  and  _239
REMARK   99  A    between atoms: _238  and  _241
REMARK  100  A    between atoms: _244  and  _246
REMARK  101  A    between atoms: _246  and  _247
REMARK  102  A    between atoms: _249  and  _251
REMARK  103  A    between atoms: _251  and  _252
REMARK  104  A    between atoms: _251  and  _254
REMARK  105  A    between atoms: _254  and  _255
REMARK  106  A    between atoms: _260  and  _261
REMARK  107  A    between atoms: _263  and  _265
REMARK  108  A    between atoms: _265  and  _266
REMARK  109  A    between atoms: _265  and  _268
REMARK  110  A    between atoms: _268  and  _269
REMARK  111  A    between atoms: _272  and  _274
REMARK  112  A    between atoms: _274  and  _275
REMARK  113  A    between atoms: _274  and  _277
REMARK  114  A    between atoms: _275  and  _276
REMARK  115  A    between atoms: _275  and  _281
REMARK  116  A    between atoms: _276  and  CA_702
REMARK  117  A    between atoms: _277  and  _278
REMARK  118  A    between atoms: _278  and  _279
REMARK  119  A    between atoms: _281  and  _283
REMARK  120  A    between atoms: _283  and  _284
REMARK  121  A    between atoms: _283  and  _286
REMARK  122  A    between atoms: _286  and  _287
REMARK  123  A    between atoms: _292  and  _294
REMARK  124  A    between atoms: _294  and  _295
REMARK  125  A    between atoms: _294  and  _297
REMARK  126  A    between atoms: _297  and  _298
REMARK  127  A    between atoms: _303  and  _305
REMARK  128  A    between atoms: _305  and  _306
REMARK  129  A    between atoms: _305  and  _308
REMARK  130  A    between atoms: _308  and  _309
REMARK  131  A    between atoms: _309  and  _310
REMARK  132  A    between atoms: _315  and  _317
REMARK  133  A    between atoms: _317  and  _318
REMARK  134  A    between atoms: _317  and  _320
REMARK  135  A    between atoms: _320  and  _321
REMARK  136  A    between atoms: _323  and  _325
REMARK  137  A    between atoms: _325  and  _326
REMARK  138  A    between atoms: _325  and  _328
REMARK  139  A    between atoms: _328  and  _329
REMARK  140  A    between atoms: _339  and  _341
REMARK  141  A    between atoms: _341  and  _342
REMARK  142  A    between atoms: _344  and  _346
REMARK  143  A    between atoms: _346  and  _347
REMARK  144  A    between atoms: _350  and  _352
REMARK  145  A    between atoms: _352  and  _353
REMARK  146  A    between atoms: _352  and  _355
REMARK  147  A    between atoms: _355  and  _356
REMARK  148  A    between atoms: _359  and  _361
REMARK  149  A    between atoms: _361  and  _362
REMARK  150  A    between atoms: _361  and  _364
REMARK  151  A    between atoms: _364  and  _365
REMARK  152  A    between atoms: _368  and  _370
REMARK  153  A    between atoms: _370  and  _371
REMARK  154  A    between atoms: _370  and  _373
REMARK  155  A    between atoms: _373  and  _374
REMARK  156  A    between atoms: _379  and  _381
REMARK  157  A    between atoms: _381  and  _382
REMARK  158  A    between atoms: _381  and  _384
REMARK  159  A    between atoms: _384  and  _385
REMARK  160  A    between atoms: _391  and  _393
REMARK  161  A    between atoms: _393  and  _394
REMARK  162  A    between atoms: _393  and  _396
REMARK  163  A    between atoms: _396  and  _397
REMARK  164  A    between atoms: _397  and  _398
REMARK  165  A    between atoms: _403  and  _405
REMARK  166  A    between atoms: _405  and  _406
REMARK  167  A    between atoms: _408  and  _410
REMARK  168  A    between atoms: _410  and  _411
REMARK  169  A    between atoms: _410  and  _413
REMARK  170  A    between atoms: _413  and  _414
REMARK  171  A    between atoms: _417  and  _419
REMARK  172  A    between atoms: _419  and  _420
REMARK  173  A    between atoms: _419  and  _422
REMARK  174  A    between atoms: _422  and  _423
REMARK  175  A    between atoms: _426  and  _428
REMARK  176  A    between atoms: _428  and  _429
REMARK  177  A    between atoms: _428  and  _431
REMARK  178  A    between atoms: _431  and  _432
REMARK  179  A    between atoms: _437  and  _438
REMARK  180  A    between atoms: _440  and  _442
REMARK  181  A    between atoms: _442  and  _443
REMARK  182  A    between atoms: _442  and  _445
REMARK  183  A    between atoms: _448  and  _450
REMARK  184  A    between atoms: _450  and  _451
REMARK  185  A    between atoms: _454  and  _456
REMARK  186  A    between atoms: _456  and  _457
REMARK  187  A    between atoms: _456  and  _459
REMARK  188  A    between atoms: _459  and  _460
REMARK  189  A    between atoms: _463  and  _465
REMARK  190  A    between atoms: _465  and  _466
REMARK  191  A    between atoms: _465  and  _468
REMARK  192  A    between atoms: _468  and  _469
REMARK  193  A    between atoms: _469  and  _470
REMARK  194  A    between atoms: _473  and  _475
REMARK  195  A    between atoms: _475  and  _476
REMARK  196  A    between atoms: _475  and  _478
REMARK  197  A    between atoms: _478  and  _479
REMARK  198  A    between atoms: _479  and  _480
REMARK  199  A    between atoms: _483  and  _485
REMARK  200  A    between atoms: _485  and  _486
REMARK  201  A    between atoms: _485  and  _488
REMARK  202  A    between atoms: _488  and  _489
REMARK  203  A    between atoms: _492  and  _494
REMARK  204  A    between atoms: _494  and  _495
REMARK  205  A    between atoms: _494  and  _497
REMARK  206  A    between atoms: _497  and  _498
REMARK  207  A    between atoms: _503  and  _505
REMARK  208  A    between atoms: _505  and  _506
REMARK  209  A    between atoms: _508  and  _510
REMARK  210  A    between atoms: _510  and  _511
REMARK  211  A    between atoms: _510  and  _513
REMARK  212  A    between atoms: _513  and  _514
REMARK  213  A    between atoms: _516  and  _518
REMARK  214  A    between atoms: _518  and  _519
REMARK  215  A    between atoms: _518  and  _521
REMARK  216  A    between atoms: _521  and  _522
REMARK  217  A    between atoms: _527  and  _529
REMARK  218  A    between atoms: _529  and  _530
REMARK  219  A    between atoms: _529  and  _532
REMARK  220  A    between atoms: _532  and  _533
REMARK  221  A    between atoms: _536  and  _538
REMARK  222  A    between atoms: _538  and  _539
REMARK  223  A    between atoms: _538  and  _541
REMARK  224  A    between atoms: _541  and  _542
REMARK  225  A    between atoms: _545  and  _547
REMARK  226  A    between atoms: _547  and  _548
REMARK  227  A    between atoms: _547  and  _550
REMARK  228  A    between atoms: _550  and  _551
REMARK  229  A    between atoms: _551  and  _552
REMARK  230  A    between atoms: _552  and  _553
REMARK  231  A    between atoms: _562  and  _564
REMARK  232  A    between atoms: _564  and  _565
REMARK  233  A    between atoms: _564  and  _567
REMARK  234  A    between atoms: _567  and  _568
REMARK  235  A    between atoms: _573  and  _575
REMARK  236  A    between atoms: _575  and  _576
REMARK  237  A    between atoms: _575  and  _578
REMARK  238  A    between atoms: _578  and  _579
REMARK  239  A    between atoms: _579  and  _580
REMARK  240  A    between atoms: _583  and  _585
REMARK  241  A    between atoms: _585  and  _586
REMARK  242  A    between atoms: _589  and  _591
REMARK  243  A    between atoms: _591  and  _592
REMARK  244  A    between atoms: _591  and  _594
REMARK  245  A    between atoms: _597  and  _599
REMARK  246  A    between atoms: _599  and  _600
REMARK  247  A    between atoms: _599  and  _602
REMARK  248  A    between atoms: _602  and  _603
REMARK  249  A    between atoms: _606  and  _608
REMARK  250  A    between atoms: _608  and  _609
REMARK  251  A    between atoms: _612  and  _614
REMARK  252  A    between atoms: _614  and  _615
REMARK  253  A    between atoms: _617  and  _619
REMARK  254  A    between atoms: _619  and  _620
REMARK  255  A    between atoms: _622  and  _624
REMARK  256  A    between atoms: _624  and  _625
REMARK  257  A    between atoms: _627  and  _629
REMARK  258  A    between atoms: _629  and  _630
REMARK  259  A    between atoms: _629  and  _632
REMARK  260  A    between atoms: _632  and  _633
REMARK  261  A    between atoms: _639  and  _641
REMARK  262  A    between atoms: _641  and  _642
REMARK  263  A    between atoms: _641  and  _644
REMARK  264  A    between atoms: _644  and  _645
REMARK  265  A    between atoms: _648  and  _650
REMARK  266  A    between atoms: _650  and  _651
REMARK  267  A    between atoms: _650  and  _653
REMARK  268  A    between atoms: _653  and  _654
REMARK  269  A    between atoms: _659  and  _661
REMARK  270  A    between atoms: _661  and  _662
REMARK  271  A    between atoms: _665  and  _667
REMARK  272  A    between atoms: _667  and  _668
REMARK  273  A    between atoms: _667  and  _670
REMARK  274  A    between atoms: _670  and  _671
REMARK  275  A    between atoms: _674  and  _676
REMARK  276  A    between atoms: _676  and  _677
REMARK  277  A    between atoms: _676  and  _679
REMARK  278  A    between atoms: _679  and  _680
REMARK  279  A    between atoms: _680  and  _681
REMARK  280  A    between atoms: _686  and  _688
REMARK  281  A    between atoms: _688  and  _689
REMARK  282  A    between atoms: _688  and  _691
REMARK  283  A    between atoms: _691  and  _692
REMARK                            x       y       z     vdW  Elec       q    Type
REMARK                         _______ _______ _______ _____ _____    ______ ____
ROOT
ATOM      1  CA  HIS A   2       8.264 -52.388 -33.987  0.00  0.00    +0.155 C 
ENDROOT
BRANCH   1   2
ATOM      2  C   HIS A   2       9.414 -51.380 -34.042  0.00  0.00    +0.241 C 
ATOM      3  N   GLU A   3       9.829 -50.873 -32.881  0.00  0.00    -0.297 N 
ATOM      4  H   GLU A   3       9.329 -51.140 -32.009  0.00  0.00    +0.150 HD
ATOM      5  O   HIS A   2       9.913 -51.069 -35.128  0.00  0.00    -0.273 OA
BRANCH   3   6
ATOM      6  CA  GLU A   3      10.969 -49.950 -32.793  0.00  0.00    +0.149 C 
BRANCH   6   7
ATOM      7  C   GLU A   3      12.277 -50.578 -33.268  0.00  0.00    +0.241 C 
ATOM      8  N   ALA A   4      12.408 -51.889 -33.070  0.00  0.00    -0.298 N 
ATOM      9  H   ALA A   4      11.653 -52.399 -32.567  0.00  0.00    +0.150 HD
ATOM     10  O   GLU A   3      13.151 -49.880 -33.789  0.00  0.00    -0.273 OA
BRANCH   8  11
ATOM     11  CA  ALA A   4      13.574 -52.635 -33.534  0.00  0.00    +0.137 C 
ATOM     12  CB  ALA A   4      13.504 -54.078 -33.073  0.00  0.00    +0.030 C 
BRANCH  11  13
ATOM     13  C   ALA A   4      13.685 -52.559 -35.053  0.00  0.00    +0.227 C 
ATOM     14  O   ALA A   4      14.761 -52.304 -35.591  0.00  0.00    -0.286 OA
ENDBRANCH  11  13
ENDBRANCH   8  11
ENDBRANCH   6   7
BRANCH   6  15
ATOM     15  CB  GLU A   3      11.156 -49.432 -31.367  0.00  0.00    +0.041 C 
BRANCH  15  16
ATOM     16  CG  GLU A   3      10.224 -48.306 -30.973  0.00  0.00    +0.116 C 
BRANCH  16  17
ATOM     17  CD  GLU A   3       8.876 -48.784 -30.466  0.00  0.00    +0.365 C 
ATOM     18  OE2 GLU A   3       8.042 -47.914 -30.154  0.00  0.00    -0.246 OA
ATOM     19  OE1 GLU A   3       8.649 -50.010 -30.373  0.00  0.00    -0.246 OA
ENDBRANCH  16  17
ENDBRANCH  15  16
ENDBRANCH   6  15
ENDBRANCH   3   6
ENDBRANCH   1   2
BRANCH   1  22
ATOM     20  C   ARG A   1       6.080 -52.470 -35.121  0.00  0.00    +0.238 C 
ATOM     21  O   ARG A   1       5.543 -53.112 -34.215  0.00  0.00    -0.274 OA
ATOM     22  N   HIS A   2       7.359 -52.098 -35.097  0.00  0.00    -0.297 N 
ATOM     23  H   HIS A   2       7.734 -51.573 -35.913  0.00  0.00    +0.150 HD
BRANCH  20  24
ATOM     24  CA  ARG A   1       5.285 -52.044 -36.359  0.00  0.00    +0.145 C 
BRANCH  24  25
ATOM     25  N   ARG A   1       6.126 -51.318 -37.309  0.00  0.00    -0.238 NA
ATOM     26  H   ARG A   1       6.820 -51.847 -37.875  0.00  0.00    +0.142 HD
ENDBRANCH  24  25
BRANCH  24  27
ATOM     27  CB  ARG A   1       4.628 -53.257 -37.033  0.00  0.00    +0.030 C 
BRANCH  27  28
ATOM     28  CG  ARG A   1       3.693 -52.917 -38.200  0.00  0.00    +0.045 C 
BRANCH  28  29
ATOM     29  CD  ARG A   1       2.495 -52.077 -37.759  0.00  0.00    +0.174 C 
BRANCH  29  30
ATOM     30  NE  ARG A   1       1.735 -52.720 -36.686  0.00  0.00    -0.265 N 
ATOM     31  HE  ARG A   1       2.157 -52.727 -35.735  0.00  0.00    +0.259 HD
ATOM     32  CZ  ARG A   1       0.545 -53.296 -36.836  0.00  0.00    +0.342 C 
ATOM     33  NH2 ARG A   1      -0.048 -53.853 -35.790  0.00  0.00    -0.292 N 
ATOM     34 HH21 ARG A   1       0.417 -53.838 -34.860  0.00  0.00    +0.255 HD
ATOM     35 HH22 ARG A   1      -0.978 -54.305 -35.899  0.00  0.00    +0.255 HD
ATOM     36  NH1 ARG A   1      -0.061 -53.308 -38.019  0.00  0.00    -0.292 N 
ATOM     37 HH11 ARG A   1      -0.991 -53.762 -38.122  0.00  0.00    +0.255 HD
ATOM     38 HH12 ARG A   1       0.395 -52.864 -38.841  0.00  0.00    +0.255 HD
ENDBRANCH  29  30
ENDBRANCH  28  29
ENDBRANCH  27  28
ENDBRANCH  24  27
ENDBRANCH  20  24
ENDBRANCH   1  22
BRANCH   1  39
ATOM     39  CB  HIS A   2       8.807 -53.816 -34.112  0.00  0.00    +0.076 C 
BRANCH  39  40
ATOM     40  CG  HIS A   2       9.262 -54.418 -32.817  0.00  0.00    +0.082 A 
ATOM     41  ND1 HIS A   2      10.269 -53.872 -32.050  0.00  0.00    -0.227 NA
ATOM     42  CE1 HIS A   2      10.460 -54.620 -30.979  0.00  0.00    +0.199 A 
ATOM     43  NE2 HIS A   2       9.621 -55.639 -31.028  0.00  0.00    -0.221 NA
ATOM     44  CD2 HIS A   2       8.866 -55.540 -32.171  0.00  0.00    +0.115 A 
ENDBRANCH  39  40
ENDBRANCH   1  39
TORSDOF 17
REMARK  Name = ../refined-set-2016/3iae/3iae_pocket.pdb
REMARK  283 active torsions:
REMARK  status: ('A' for Active; 'I' for Inactive)
REMARK    1  A    between atoms: _1  and  _3
REMARK    2  A    between atoms: _3  and  _4
REMARK    3  A    between atoms: _3  and  _6
REMARK    4  A    between atoms: _6  and  _7
REMARK    5  A    between atoms: _10  and  _12
REMARK    6  A    between atoms: _12  and  _13
REMARK    7  A    between atoms: _12  and  _15
REMARK    8  A    between atoms: _15  and  _16
REMARK    9  A    between atoms: _21  and  _22
REMARK   10  A    between atoms: _24  and  _26
REMARK   11  A    between atoms: _26  and  _27
REMARK   12  A    between atoms: _26  and  _29
REMARK   13  A    between atoms: _29  and  _30
REMARK   14  A    between atoms: _34  and  _35
REMARK   15  A    between atoms: _40  and  _42
REMARK   16  A    between atoms: _42  and  _43
REMARK   17  A    between atoms: _42  and  _45
REMARK   18  A    between atoms: _45  and  _46
REMARK   19  A    between atoms: _49  and  _51
REMARK   20  A    between atoms: _51  and  _52
REMARK   21  A    between atoms: _54  and  _56
REMARK   22  A    between atoms: _56  and  _57
REMARK   23  A    between atoms: _60  and  _62
REMARK   24  A    between atoms: _62  and  _63
REMARK   25  A    between atoms: _62  and  _65
REMARK   26  A    between atoms: _65  and  _66
REMARK   27  A    between atoms: _69  and  _71
REMARK   28  A    between atoms: _71  and  _72
REMARK   29  A    between atoms: _71  and  _74
REMARK   30  A    between atoms: _74  and  _75
REMARK   31  A    between atoms: _78  and  _80
REMARK   32  A    between atoms: _80  and  _81
REMARK   33  A    between atoms: _80  and  _83
REMARK   34  A    between atoms: _83  and  _84
REMARK   35  A    between atoms: _89  and  _90
REMARK   36  A    between atoms: _92  and  _94
REMARK   37  A    between atoms: _94  and  _95
REMARK   38  A    between atoms: _94  and  _97
REMARK   39  A    between atoms: _97  and  _98
REMARK   40  A    between atoms: _101  and  _103
REMARK   41  A    between atoms: _103  and  _104
REMARK   42  A    between atoms: _103  and  _106
REMARK   43  A    between atoms: _106  and  _107
REMARK   44  A    between atoms: _117  and  _119
REMARK   45  A    between atoms: _119  and  _120
REMARK   46  A    between atoms: _119  and  _122
REMARK   47  A    between atoms: _122  and  _123
REMARK   48  A    between atoms: _126  and  _128
REMARK   49  A    between atoms: _128  and  _129
REMARK   50  A    between atoms: _128  and  _131
REMARK   51  A    between atoms: _131  and  _132
REMARK   52  A    between atoms: _137  and  _139
REMARK   53  A    between atoms: _139  and  _140
REMARK   54  A    between atoms: _142  and  _144
REMARK   55  A    between atoms: _144  and  _145
REMARK   56  A    between atoms: _144  and  _147
REMARK   57  A    between atoms: _147  and  _148
REMARK   58  A    between atoms: _153  and  _154
REMARK   59  A    between atoms: _156  and  _158
REMARK   60  A    between atoms: _158  and  _159
REMARK   61  A    between atoms: _158  and  _161
REMARK   62  A    between atoms: _161  and  _162
REMARK   63  A    between atoms: _165  and  _167
REMARK   64  A    between atoms: _167  and  _168
REMARK   65  A    between atoms: _170  and  _172
REMARK   66  A    between atoms: _172  and  _173
REMARK   67  A    between atoms: _172  and  _175
REMARK   68  A    between atoms: _175  and  _176
REMARK   69  A    between atoms: _178  and  _180
REMARK   70  A    between atoms: _180  and  _181
REMARK   71  A    between atoms: _180  and  _183
REMARK   72  A    between atoms: _183  and  _184
REMARK   73  A    between atoms: _184  and  _185
REMARK   74  A    between atoms: _187  and  _189
REMARK   75  A    between atoms: _189  and  _190
REMARK   76  A    between atoms: _192  and  _194
REMARK   77  A    between atoms: _194  and  _195
REMARK   78  A    between atoms: _194  and  _197
REMARK   79  A    between atoms: _200  and  _202
REMARK   80  A    between atoms: _202  and  _203
REMARK   81  A    between atoms: _202  and  _205
REMARK   82  A    between atoms: _205  and  _206
REMARK   83  A    between atoms: _209  and  _211
REMARK   84  A    between atoms: _211  and  _212
REMARK   85  A    between atoms: _214  and  _216
REMARK   86  A    between atoms: _216  and  _217
REMARK   87  A    between atoms: _216  and  _219
REMARK   88  A    between atoms: _219  and  _220
REMARK   89  A    between atoms: _220  and  _221
REMARK   90  A    between atoms: _221  and  CA_702
REMARK   91  A    between atoms: _223  and  _225
REMARK   92  A    between atoms: _225  and  _226
REMARK   93  A    between atoms: _228  and  _230
REMARK   94  A    between atoms: _230  and  _231
REMARK   95  A    between atoms: _230  and  _233
REMARK   96  A    between atoms: _233  and  _234
REMARK   97  A    between atoms: _236  and  _238
REMARK   98  A    between atoms: _238  and  _239
REMARK   99  A    between atoms: _238  and  _241
REMARK  100  A    between atoms: _244  and  _246
REMARK  101  A    between atoms: _246  and  _247
REMARK  102  A    between atoms: _249  and  _251
REMARK  103  A    between atoms: _251  and  _252
REMARK  104  A    between atoms: _251  and  _254
REMARK  105  A    between atoms: _254  and  _255
REMARK  106  A    between atoms: _260  and  _261
REMARK  107  A    between atoms: _263  and  _265
REMARK  108  A    between atoms: _265  and  _266
REMARK  109  A    between atoms: _265  and  _268
REMARK  110  A    between atoms: _268  and  _269
REMARK  111  A    between atoms: _272  and  _274
REMARK  112  A    between atoms: _274  and  _275
REMARK  113  A    between atoms: _274  and  _277
REMARK  114  A    between atoms: _275  and  _276
REMARK  115  A    between atoms: _275  and  _281
REMARK  116  A    between atoms: _276  and  CA_702
REMARK  117  A    between atoms: _277  and  _278
REMARK  118  A    between atoms: _278  and  _279
REMARK  119  A    between atoms: _281  and  _283
REMARK  120  A    between atoms: _283  and  _284
REMARK  121  A    between atoms: _283  and  _286
REMARK  122  A    between atoms: _286  and  _287
REMARK  123  A    between atoms: _292  and  _294
REMARK  124  A    between atoms: _294  and  _295
REMARK  125  A    between atoms: _294  and  _297
REMARK  126  A    between atoms: _297  and  _298
REMARK  127  A    between atoms: _303  and  _305
REMARK  128  A    between atoms: _305  and  _306
REMARK  129  A    between atoms: _305  and  _308
REMARK  130  A    between atoms: _308  and  _309
REMARK  131  A    between atoms: _309  and  _310
REMARK  132  A    between atoms: _315  and  _317
REMARK  133  A    between atoms: _317  and  _318
REMARK  134  A    between atoms: _317  and  _320
REMARK  135  A    between atoms: _320  and  _321
REMARK  136  A    between atoms: _323  and  _325
REMARK  137  A    between atoms: _325  and  _326
REMARK  138  A    between atoms: _325  and  _328
REMARK  139  A    between atoms: _328  and  _329
REMARK  140  A    between atoms: _339  and  _341
REMARK  141  A    between atoms: _341  and  _342
REMARK  142  A    between atoms: _344  and  _346
REMARK  143  A    between atoms: _346  and  _347
REMARK  144  A    between atoms: _350  and  _352
REMARK  145  A    between atoms: _352  and  _353
REMARK  146  A    between atoms: _352  and  _355
REMARK  147  A    between atoms: _355  and  _356
REMARK  148  A    between atoms: _359  and  _361
REMARK  149  A    between atoms: _361  and  _362
REMARK  150  A    between atoms: _361  and  _364
REMARK  151  A    between atoms: _364  and  _365
REMARK  152  A    between atoms: _368  and  _370
REMARK  153  A    between atoms: _370  and  _371
REMARK  154  A    between atoms: _370  and  _373
REMARK  155  A    between atoms: _373  and  _374
REMARK  156  A    between atoms: _379  and  _381
REMARK  157  A    between atoms: _381  and  _382
REMARK  158  A    between atoms: _381  and  _384
REMARK  159  A    between atoms: _384  and  _385
REMARK  160  A    between atoms: _391  and  _393
REMARK  161  A    between atoms: _393  and  _394
REMARK  162  A    between atoms: _393  and  _396
REMARK  163  A    between atoms: _396  and  _397
REMARK  164  A    between atoms: _397  and  _398
REMARK  165  A    between atoms: _403  and  _405
REMARK  166  A    between atoms: _405  and  _406
REMARK  167  A    between atoms: _408  and  _410
REMARK  168  A    between atoms: _410  and  _411
REMARK  169  A    between atoms: _410  and  _413
REMARK  170  A    between atoms: _413  and  _414
REMARK  171  A    between atoms: _417  and  _419
REMARK  172  A    between atoms: _419  and  _420
REMARK  173  A    between atoms: _419  and  _422
REMARK  174  A    between atoms: _422  and  _423
REMARK  175  A    between atoms: _426  and  _428
REMARK  176  A    between atoms: _428  and  _429
REMARK  177  A    between atoms: _428  and  _431
REMARK  178  A    between atoms: _431  and  _432
REMARK  179  A    between atoms: _437  and  _438
REMARK  180  A    between atoms: _440  and  _442
REMARK  181  A    between atoms: _442  and  _443
REMARK  182  A    between atoms: _442  and  _445
REMARK  183  A    between atoms: _448  and  _450
REMARK  184  A    between atoms: _450  and  _451
REMARK  185  A    between atoms: _454  and  _456
REMARK  186  A    between atoms: _456  and  _457
REMARK  187  A    between atoms: _456  and  _459
REMARK  188  A    between atoms: _459  and  _460
REMARK  189  A    between atoms: _463  and  _465
REMARK  190  A    between atoms: _465  and  _466
REMARK  191  A    between atoms: _465  and  _468
REMARK  192  A    between atoms: _468  and  _469
REMARK  193  A    between atoms: _469  and  _470
REMARK  194  A    between atoms: _473  and  _475
REMARK  195  A    between atoms: _475  and  _476
REMARK  196  A    between atoms: _475  and  _478
REMARK  197  A    between atoms: _478  and  _479
REMARK  198  A    between atoms: _479  and  _480
REMARK  199  A    between atoms: _483  and  _485
REMARK  200  A    between atoms: _485  and  _486
REMARK  201  A    between atoms: _485  and  _488
REMARK  202  A    between atoms: _488  and  _489
REMARK  203  A    between atoms: _492  and  _494
REMARK  204  A    between atoms: _494  and  _495
REMARK  205  A    between atoms: _494  and  _497
REMARK  206  A    between atoms: _497  and  _498
REMARK  207  A    between atoms: _503  and  _505
REMARK  208  A    between atoms: _505  and  _506
REMARK  209  A    between atoms: _508  and  _510
REMARK  210  A    between atoms: _510  and  _511
REMARK  211  A    between atoms: _510  and  _513
REMARK  212  A    between atoms: _513  and  _514
REMARK  213  A    between atoms: _516  and  _518
REMARK  214  A    between atoms: _518  and  _519
REMARK  215  A    between atoms: _518  and  _521
REMARK  216  A    between atoms: _521  and  _522
REMARK  217  A    between atoms: _527  and  _529
REMARK  218  A    between atoms: _529  and  _530
REMARK  219  A    between atoms: _529  and  _532
REMARK  220  A    between atoms: _532  and  _533
REMARK  221  A    between atoms: _536  and  _538
REMARK  222  A    between atoms: _538  and  _539
REMARK  223  A    between atoms: _538  and  _541
REMARK  224  A    between atoms: _541  and  _542
REMARK  225  A    between atoms: _545  and  _547
REMARK  226  A    between atoms: _547  and  _548
REMARK  227  A    between atoms: _547  and  _550
REMARK  228  A    between atoms: _550  and  _551
REMARK  229  A    between atoms: _551  and  _552
REMARK  230  A    between atoms: _552  and  _553
REMARK  231  A    between atoms: _562  and  _564
REMARK  232  A    between atoms: _564  and  _565
REMARK  233  A    between atoms: _564  and  _567
REMARK  234  A    between atoms: _567  and  _568
REMARK  235  A    between atoms: _573  and  _575
REMARK  236  A    between atoms: _575  and  _576
REMARK  237  A    between atoms: _575  and  _578
REMARK  238  A    between atoms: _578  and  _579
REMARK  239  A    between atoms: _579  and  _580
REMARK  240  A    between atoms: _583  and  _585
REMARK  241  A    between atoms: _585  and  _586
REMARK  242  A    between atoms: _589  and  _591
REMARK  243  A    between atoms: _591  and  _592
REMARK  244  A    between atoms: _591  and  _594
REMARK  245  A    between atoms: _597  and  _599
REMARK  246  A    between atoms: _599  and  _600
REMARK  247  A    between atoms: _599  and  _602
REMARK  248  A    between atoms: _602  and  _603
REMARK  249  A    between atoms: _606  and  _608
REMARK  250  A    between atoms: _608  and  _609
REMARK  251  A    between atoms: _612  and  _614
REMARK  252  A    between atoms: _614  and  _615
REMARK  253  A    between atoms: _617  and  _619
REMARK  254  A    between atoms: _619  and  _620
REMARK  255  A    between atoms: _622  and  _624
REMARK  256  A    between atoms: _624  and  _625
REMARK  257  A    between atoms: _627  and  _629
REMARK  258  A    between atoms: _629  and  _630
REMARK  259  A    between atoms: _629  and  _632
REMARK  260  A    between atoms: _632  and  _633
REMARK  261  A    between atoms: _639  and  _641
REMARK  262  A    between atoms: _641  and  _642
REMARK  263  A    between atoms: _641  and  _644
REMARK  264  A    between atoms: _644  and  _645
REMARK  265  A    between atoms: _648  and  _650
REMARK  266  A    between atoms: _650  and  _651
REMARK  267  A    between atoms: _650  and  _653
REMARK  268  A    between atoms: _653  and  _654
REMARK  269  A    between atoms: _659  and  _661
REMARK  270  A    between atoms: _661  and  _662
REMARK  271  A    between atoms: _665  and  _667
REMARK  272  A    between atoms: _667  and  _668
REMARK  273  A    between atoms: _667  and  _670
REMARK  274  A    between atoms: _670  and  _671
REMARK  275  A    between atoms: _674  and  _676
REMARK  276  A    between atoms: _676  and  _677
REMARK  277  A    between atoms: _676  and  _679
REMARK  278  A    between atoms: _679  and  _680
REMARK  279  A    between atoms: _680  and  _681
REMARK  280  A    between atoms: _686  and  _688
REMARK  281  A    between atoms: _688  and  _689
REMARK  282  A    between atoms: _688  and  _691
REMARK  283  A    between atoms: _691  and  _692
REMARK                            x       y       z     vdW  Elec       q    Type
REMARK                         _______ _______ _______ _____ _____    ______ ____
ROOT
ATOM      1  C   GLY A   6      11.845 -47.233 -27.428  0.00  0.00    +0.243 C 
ATOM      2  N   PHE A   7      12.535 -46.751 -26.394  0.00  0.00    -0.297 N 
ATOM      3  H   PHE A   7      12.019 -46.296 -25.614  0.00  0.00    +0.150 HD
ATOM      4  O   GLY A   6      12.370 -47.765 -28.409  0.00  0.00    -0.273 OA
ENDROOT
BRANCH   1   5
ATOM      5  CA  GLY A   6      10.335 -47.116 -27.334  0.00  0.00    +0.176 C 
BRANCH   5   7
ATOM      6  C   GLY A   5      10.099 -48.818 -25.598  0.00  0.00    +0.243 C 
ATOM      7  N   GLY A   6       9.860 -47.583 -26.036  0.00  0.00    -0.295 N 
ATOM      8  H   GLY A   6       9.318 -46.931 -25.434  0.00  0.00    +0.150 HD
ATOM      9  O   GLY A   5      10.629 -49.687 -26.290  0.00  0.00    -0.273 OA
BRANCH   6  10
ATOM     10  CA  GLY A   5       9.674 -49.122 -24.177  0.00  0.00    +0.176 C 
BRANCH  10  13
ATOM     11  C   GLY A   4      10.766 -47.312 -22.932  0.00  0.00    +0.243 C 
ATOM     12  O   GLY A   4      11.901 -47.647 -23.283  0.00  0.00    -0.273 OA
ATOM     13  N   GLY A   5       9.659 -47.950 -23.306  0.00  0.00    -0.295 N 
ATOM     14  H   GLY A   5       8.743 -47.598 -22.963  0.00  0.00    +0.150 HD
BRANCH  11  15
ATOM     15  CA  GLY A   4      10.553 -46.126 -22.015  0.00  0.00    +0.176 C 
BRANCH  15  17
ATOM     16  C   ALA A   3       9.910 -44.321 -23.546  0.00  0.00    +0.241 C 
ATOM     17  N   GLY A   4      10.746 -44.821 -22.639  0.00  0.00    -0.295 N 
ATOM     18  H   GLY A   4      11.574 -44.256 -22.362  0.00  0.00    +0.150 HD
ATOM     19  O   ALA A   3       8.985 -44.965 -24.047  0.00  0.00    -0.273 OA
BRANCH  16  20
ATOM     20  CA  ALA A   3      10.173 -42.872 -23.954  0.00  0.00    +0.149 C 
ATOM     21  CB  ALA A   3       9.518 -41.925 -22.966  0.00  0.00    +0.031 C 
BRANCH  20  23
ATOM     22  C   THR A   2      10.203 -43.165 -26.397  0.00  0.00    +0.243 C 
ATOM     23  N   ALA A   3       9.727 -42.558 -25.310  0.00  0.00    -0.297 N 
ATOM     24  H   ALA A   3       9.001 -41.823 -25.433  0.00  0.00    +0.150 HD
ATOM     25  O   THR A   2      11.069 -44.043 -26.357  0.00  0.00    -0.273 OA
BRANCH  22  26
ATOM     26  CA  THR A   2       9.604 -42.706 -27.735  0.00  0.00    +0.176 C 
BRANCH  26  28
ATOM     27  C   VAL A   1      11.152 -42.845 -29.618  0.00  0.00    +0.238 C 
ATOM     28  N   THR A   2      10.182 -43.390 -28.890  0.00  0.00    -0.295 N 
ATOM     29  H   THR A   2       9.824 -44.331 -29.150  0.00  0.00    +0.150 HD
ATOM     30  O   VAL A   1      11.672 -41.764 -29.338  0.00  0.00    -0.274 OA
BRANCH  27  31
ATOM     31  CA  VAL A   1      11.607 -43.636 -30.850  0.00  0.00    +0.145 C 
BRANCH  31  32
ATOM     32  CB  VAL A   1      12.330 -44.953 -30.420  0.00  0.00    +0.025 C 
ATOM     33  CG2 VAL A   1      13.562 -44.661 -29.571  0.00  0.00    +0.002 C 
ATOM     34  CG1 VAL A   1      12.710 -45.786 -31.639  0.00  0.00    +0.002 C 
ENDBRANCH  31  32
BRANCH  31  35
ATOM     35  N   VAL A   1      12.426 -42.826 -31.760  0.00  0.00    -0.238 NA
ATOM     36  H   VAL A   1      13.299 -42.393 -31.398  0.00  0.00    +0.142 HD
ENDBRANCH  31  35
ENDBRANCH  27  31
ENDBRANCH  26  28
BRANCH  26  37
ATOM     37  CB  THR A   2       8.057 -42.837 -27.718  0.00  0.00    +0.137 C 
ATOM     38  CG2 THR A   2       7.627 -44.276 -27.444  0.00  0.00    +0.034 C 
BRANCH  37  39
ATOM     39  OG1 THR A   2       7.509 -41.975 -26.714  0.00  0.00    -0.382 OA
ATOM     40  HG1 THR A   2       6.523 -42.063 -26.708  0.00  0.00    +0.210 HD
ENDBRANCH  37  39
ENDBRANCH  26  37
ENDBRANCH  22  26
ENDBRANCH  20  23
ENDBRANCH  16  20
ENDBRANCH  15  17
ENDBRANCH  11  15
ENDBRANCH  10  13
ENDBRANCH   6  10
ENDBRANCH   5   7
ENDBRANCH   1   5
BRANCH   2  41
ATOM     41  CA  PHE A   7      13.992 -46.840 -26.318  0.00  0.00    +0.153 C 
BRANCH  41  42
ATOM     42  C   PHE A   7      14.504 -48.276 -26.186  0.00  0.00    +0.241 C 
ATOM     43  N   THR A   8      13.928 -49.037 -25.254  0.00  0.00    -0.295 N 
ATOM     44  H   THR A   8      13.120 -48.657 -24.721  0.00  0.00    +0.150 HD
ATOM     45  O   PHE A   7      15.419 -48.673 -26.911  0.00  0.00    -0.273 OA
BRANCH  43  46
ATOM     46  CA  THR A   8      14.400 -50.395 -24.958  0.00  0.00    +0.176 C 
BRANCH  46  47
ATOM     47  C   THR A   8      14.214 -51.345 -26.140  0.00  0.00    +0.243 C 
ATOM     48  O   THR A   8      14.990 -52.288 -26.312  0.00  0.00    -0.273 OA
ATOM     49  N   ASN A   9      13.188 -51.087 -26.950  0.00  0.00    -0.297 N 
ATOM     50  H   ASN A   9      12.535 -50.316 -26.705  0.00  0.00    +0.150 HD
BRANCH  49  51
ATOM     51  CA  ASN A   9      12.951 -51.853 -28.173  0.00  0.00    +0.158 C 
BRANCH  51  52
ATOM     52  C   ASN A   9      13.920 -51.487 -29.297  0.00  0.00    +0.241 C 
ATOM     53  N   ALA A  10      14.605 -50.355 -29.146  0.00  0.00    -0.298 N 
ATOM     54  H   ALA A  10      14.420 -49.764 -28.310  0.00  0.00    +0.150 HD
ATOM     55  O   ASN A   9      14.039 -52.218 -30.278  0.00  0.00    -0.273 OA
BRANCH  53  56
ATOM     56  CA  ALA A  10      15.609 -49.913 -30.115  0.00  0.00    +0.137 C 
ATOM     57  CB  ALA A  10      15.583 -48.391 -30.248  0.00  0.00    +0.030 C 
BRANCH  56  58
ATOM     58  C   ALA A  10      17.027 -50.396 -29.777  0.00  0.00    +0.227 C 
ATOM     59  O   ALA A  10      17.963 -50.142 -30.536  0.00  0.00    -0.286 OA
ENDBRANCH  56  58
ENDBRANCH  53  56
ENDBRANCH  51  52
BRANCH  51  60
ATOM     60  CB  ASN A   9      11.501 -51.701 -28.648  0.00  0.00    +0.114 C 
BRANCH  60  61
ATOM     61  CG  ASN A   9      10.519 -52.502 -27.811  0.00  0.00    +0.222 C 
ATOM     62  OD1 ASN A   9      10.892 -53.450 -27.120  0.00  0.00    -0.275 OA
ATOM     63  ND2 ASN A   9       9.250 -52.125 -27.877  0.00  0.00    -0.329 N 
ATOM     64 HD21 ASN A   9       8.527 -52.636 -27.332  0.00  0.00    +0.145 HD
ATOM     65 HD22 ASN A   9       8.978 -51.318 -28.474  0.00  0.00    +0.145 HD
ENDBRANCH  60  61
ENDBRANCH  51  60
ENDBRANCH  49  51
ENDBRANCH  46  47
BRANCH  46  66
ATOM     66  CB  THR A   8      13.733 -51.002 -23.697  0.00  0.00    +0.137 C 
ATOM     67  CG2 THR A   8      14.049 -50.177 -22.452  0.00  0.00    +0.034 C 
BRANCH  66  68
ATOM     68  OG1 THR A   8      12.314 -51.079 -23.884  0.00  0.00    -0.382 OA
ATOM     69  HG1 THR A   8      12.116 -51.652 -24.666  0.00  0.00    +0.210 HD
ENDBRANCH  66  68
ENDBRANCH  46  66
ENDBRANCH  43  46
ENDBRANCH  41  42
BRANCH  41  70
ATOM     70  CB  PHE A   7      14.547 -45.979 -25.173  0.00  0.00    +0.055 C 
BRANCH  70  71
ATOM     71  CG  PHE A   7      15.954 -46.341 -24.781  0.00  0.00    -0.020 A 
ATOM     72  CD2 PHE A   7      16.197 -47.121 -23.654  0.00  0.00    -0.004 A 
ATOM     73  CE2 PHE A   7      17.495 -47.474 -23.298  0.00  0.00    -0.000 A 
ATOM     74  CZ  PHE A   7      18.565 -47.051 -24.076  0.00  0.00    -0.000 A 
ATOM     75  CE1 PHE A   7      18.337 -46.277 -25.204  0.00  0.00    -0.000 A 
ATOM     76  CD1 PHE A   7      17.036 -45.928 -25.554  0.00  0.00    -0.004 A 
ENDBRANCH  70  71
ENDBRANCH  41  70
ENDBRANCH   2  41
TORSDOF 29
REMARK  Name = ../refined-set-2016/3iae/3iae_pocket.pdb
REMARK  283 active torsions:
REMARK  status: ('A' for Active; 'I' for Inactive)
REMARK    1  A    between atoms: _1  and  _3
REMARK    2  A    between atoms: _3  and  _4
REMARK    3  A    between atoms: _3  and  _6
REMARK    4  A    between atoms: _6  and  _7
REMARK    5  A    between atoms: _10  and  _12
REMARK    6  A    between atoms: _12  and  _13
REMARK    7  A    between atoms: _12  and  _15
REMARK    8  A    between atoms: _15  and  _16
REMARK    9  A    between atoms: _21  and  _22
REMARK   10  A    between atoms: _24  and  _26
REMARK   11  A    between atoms: _26  and  _27
REMARK   12  A    between atoms: _26  and  _29
REMARK   13  A    between atoms: _29  and  _30
REMARK   14  A    between atoms: _34  and  _35
REMARK   15  A    between atoms: _40  and  _42
REMARK   16  A    between atoms: _42  and  _43
REMARK   17  A    between atoms: _42  and  _45
REMARK   18  A    between atoms: _45  and  _46
REMARK   19  A    between atoms: _49  and  _51
REMARK   20  A    between atoms: _51  and  _52
REMARK   21  A    between atoms: _54  and  _56
REMARK   22  A    between atoms: _56  and  _57
REMARK   23  A    between atoms: _60  and  _62
REMARK   24  A    between atoms: _62  and  _63
REMARK   25  A    between atoms: _62  and  _65
REMARK   26  A    between atoms: _65  and  _66
REMARK   27  A    between atoms: _69  and  _71
REMARK   28  A    between atoms: _71  and  _72
REMARK   29  A    between atoms: _71  and  _74
REMARK   30  A    between atoms: _74  and  _75
REMARK   31  A    between atoms: _78  and  _80
REMARK   32  A    between atoms: _80  and  _81
REMARK   33  A    between atoms: _80  and  _83
REMARK   34  A    between atoms: _83  and  _84
REMARK   35  A    between atoms: _89  and  _90
REMARK   36  A    between atoms: _92  and  _94
REMARK   37  A    between atoms: _94  and  _95
REMARK   38  A    between atoms: _94  and  _97
REMARK   39  A    between atoms: _97  and  _98
REMARK   40  A    between atoms: _101  and  _103
REMARK   41  A    between atoms: _103  and  _104
REMARK   42  A    between atoms: _103  and  _106
REMARK   43  A    between atoms: _106  and  _107
REMARK   44  A    between atoms: _117  and  _119
REMARK   45  A    between atoms: _119  and  _120
REMARK   46  A    between atoms: _119  and  _122
REMARK   47  A    between atoms: _122  and  _123
REMARK   48  A    between atoms: _126  and  _128
REMARK   49  A    between atoms: _128  and  _129
REMARK   50  A    between atoms: _128  and  _131
REMARK   51  A    between atoms: _131  and  _132
REMARK   52  A    between atoms: _137  and  _139
REMARK   53  A    between atoms: _139  and  _140
REMARK   54  A    between atoms: _142  and  _144
REMARK   55  A    between atoms: _144  and  _145
REMARK   56  A    between atoms: _144  and  _147
REMARK   57  A    between atoms: _147  and  _148
REMARK   58  A    between atoms: _153  and  _154
REMARK   59  A    between atoms: _156  and  _158
REMARK   60  A    between atoms: _158  and  _159
REMARK   61  A    between atoms: _158  and  _161
REMARK   62  A    between atoms: _161  and  _162
REMARK   63  A    between atoms: _165  and  _167
REMARK   64  A    between atoms: _167  and  _168
REMARK   65  A    between atoms: _170  and  _172
REMARK   66  A    between atoms: _172  and  _173
REMARK   67  A    between atoms: _172  and  _175
REMARK   68  A    between atoms: _175  and  _176
REMARK   69  A    between atoms: _178  and  _180
REMARK   70  A    between atoms: _180  and  _181
REMARK   71  A    between atoms: _180  and  _183
REMARK   72  A    between atoms: _183  and  _184
REMARK   73  A    between atoms: _184  and  _185
REMARK   74  A    between atoms: _187  and  _189
REMARK   75  A    between atoms: _189  and  _190
REMARK   76  A    between atoms: _192  and  _194
REMARK   77  A    between atoms: _194  and  _195
REMARK   78  A    between atoms: _194  and  _197
REMARK   79  A    between atoms: _200  and  _202
REMARK   80  A    between atoms: _202  and  _203
REMARK   81  A    between atoms: _202  and  _205
REMARK   82  A    between atoms: _205  and  _206
REMARK   83  A    between atoms: _209  and  _211
REMARK   84  A    between atoms: _211  and  _212
REMARK   85  A    between atoms: _214  and  _216
REMARK   86  A    between atoms: _216  and  _217
REMARK   87  A    between atoms: _216  and  _219
REMARK   88  A    between atoms: _219  and  _220
REMARK   89  A    between atoms: _220  and  _221
REMARK   90  A    between atoms: _221  and  CA_702
REMARK   91  A    between atoms: _223  and  _225
REMARK   92  A    between atoms: _225  and  _226
REMARK   93  A    between atoms: _228  and  _230
REMARK   94  A    between atoms: _230  and  _231
REMARK   95  A    between atoms: _230  and  _233
REMARK   96  A    between atoms: _233  and  _234
REMARK   97  A    between atoms: _236  and  _238
REMARK   98  A    between atoms: _238  and  _239
REMARK   99  A    between atoms: _238  and  _241
REMARK  100  A    between atoms: _244  and  _246
REMARK  101  A    between atoms: _246  and  _247
REMARK  102  A    between atoms: _249  and  _251
REMARK  103  A    between atoms: _251  and  _252
REMARK  104  A    between atoms: _251  and  _254
REMARK  105  A    between atoms: _254  and  _255
REMARK  106  A    between atoms: _260  and  _261
REMARK  107  A    between atoms: _263  and  _265
REMARK  108  A    between atoms: _265  and  _266
REMARK  109  A    between atoms: _265  and  _268
REMARK  110  A    between atoms: _268  and  _269
REMARK  111  A    between atoms: _272  and  _274
REMARK  112  A    between atoms: _274  and  _275
REMARK  113  A    between atoms: _274  and  _277
REMARK  114  A    between atoms: _275  and  _276
REMARK  115  A    between atoms: _275  and  _281
REMARK  116  A    between atoms: _276  and  CA_702
REMARK  117  A    between atoms: _277  and  _278
REMARK  118  A    between atoms: _278  and  _279
REMARK  119  A    between atoms: _281  and  _283
REMARK  120  A    between atoms: _283  and  _284
REMARK  121  A    between atoms: _283  and  _286
REMARK  122  A    between atoms: _286  and  _287
REMARK  123  A    between atoms: _292  and  _294
REMARK  124  A    between atoms: _294  and  _295
REMARK  125  A    between atoms: _294  and  _297
REMARK  126  A    between atoms: _297  and  _298
REMARK  127  A    between atoms: _303  and  _305
REMARK  128  A    between atoms: _305  and  _306
REMARK  129  A    between atoms: _305  and  _308
REMARK  130  A    between atoms: _308  and  _309
REMARK  131  A    between atoms: _309  and  _310
REMARK  132  A    between atoms: _315  and  _317
REMARK  133  A    between atoms: _317  and  _318
REMARK  134  A    between atoms: _317  and  _320
REMARK  135  A    between atoms: _320  and  _321
REMARK  136  A    between atoms: _323  and  _325
REMARK  137  A    between atoms: _325  and  _326
REMARK  138  A    between atoms: _325  and  _328
REMARK  139  A    between atoms: _328  and  _329
REMARK  140  A    between atoms: _339  and  _341
REMARK  141  A    between atoms: _341  and  _342
REMARK  142  A    between atoms: _344  and  _346
REMARK  143  A    between atoms: _346  and  _347
REMARK  144  A    between atoms: _350  and  _352
REMARK  145  A    between atoms: _352  and  _353
REMARK  146  A    between atoms: _352  and  _355
REMARK  147  A    between atoms: _355  and  _356
REMARK  148  A    between atoms: _359  and  _361
REMARK  149  A    between atoms: _361  and  _362
REMARK  150  A    between atoms: _361  and  _364
REMARK  151  A    between atoms: _364  and  _365
REMARK  152  A    between atoms: _368  and  _370
REMARK  153  A    between atoms: _370  and  _371
REMARK  154  A    between atoms: _370  and  _373
REMARK  155  A    between atoms: _373  and  _374
REMARK  156  A    between atoms: _379  and  _381
REMARK  157  A    between atoms: _381  and  _382
REMARK  158  A    between atoms: _381  and  _384
REMARK  159  A    between atoms: _384  and  _385
REMARK  160  A    between atoms: _391  and  _393
REMARK  161  A    between atoms: _393  and  _394
REMARK  162  A    between atoms: _393  and  _396
REMARK  163  A    between atoms: _396  and  _397
REMARK  164  A    between atoms: _397  and  _398
REMARK  165  A    between atoms: _403  and  _405
REMARK  166  A    between atoms: _405  and  _406
REMARK  167  A    between atoms: _408  and  _410
REMARK  168  A    between atoms: _410  and  _411
REMARK  169  A    between atoms: _410  and  _413
REMARK  170  A    between atoms: _413  and  _414
REMARK  171  A    between atoms: _417  and  _419
REMARK  172  A    between atoms: _419  and  _420
REMARK  173  A    between atoms: _419  and  _422
REMARK  174  A    between atoms: _422  and  _423
REMARK  175  A    between atoms: _426  and  _428
REMARK  176  A    between atoms: _428  and  _429
REMARK  177  A    between atoms: _428  and  _431
REMARK  178  A    between atoms: _431  and  _432
REMARK  179  A    between atoms: _437  and  _438
REMARK  180  A    between atoms: _440  and  _442
REMARK  181  A    between atoms: _442  and  _443
REMARK  182  A    between atoms: _442  and  _445
REMARK  183  A    between atoms: _448  and  _450
REMARK  184  A    between atoms: _450  and  _451
REMARK  185  A    between atoms: _454  and  _456
REMARK  186  A    between atoms: _456  and  _457
REMARK  187  A    between atoms: _456  and  _459
REMARK  188  A    between atoms: _459  and  _460
REMARK  189  A    between atoms: _463  and  _465
REMARK  190  A    between atoms: _465  and  _466
REMARK  191  A    between atoms: _465  and  _468
REMARK  192  A    between atoms: _468  and  _469
REMARK  193  A    between atoms: _469  and  _470
REMARK  194  A    between atoms: _473  and  _475
REMARK  195  A    between atoms: _475  and  _476
REMARK  196  A    between atoms: _475  and  _478
REMARK  197  A    between atoms: _478  and  _479
REMARK  198  A    between atoms: _479  and  _480
REMARK  199  A    between atoms: _483  and  _485
REMARK  200  A    between atoms: _485  and  _486
REMARK  201  A    between atoms: _485  and  _488
REMARK  202  A    between atoms: _488  and  _489
REMARK  203  A    between atoms: _492  and  _494
REMARK  204  A    between atoms: _494  and  _495
REMARK  205  A    between atoms: _494  and  _497
REMARK  206  A    between atoms: _497  and  _498
REMARK  207  A    between atoms: _503  and  _505
REMARK  208  A    between atoms: _505  and  _506
REMARK  209  A    between atoms: _508  and  _510
REMARK  210  A    between atoms: _510  and  _511
REMARK  211  A    between atoms: _510  and  _513
REMARK  212  A    between atoms: _513  and  _514
REMARK  213  A    between atoms: _516  and  _518
REMARK  214  A    between atoms: _518  and  _519
REMARK  215  A    between atoms: _518  and  _521
REMARK  216  A    between atoms: _521  and  _522
REMARK  217  A    between atoms: _527  and  _529
REMARK  218  A    between atoms: _529  and  _530
REMARK  219  A    between atoms: _529  and  _532
REMARK  220  A    between atoms: _532  and  _533
REMARK  221  A    between atoms: _536  and  _538
REMARK  222  A    between atoms: _538  and  _539
REMARK  223  A    between atoms: _538  and  _541
REMARK  224  A    between atoms: _541  and  _542
REMARK  225  A    between atoms: _545  and  _547
REMARK  226  A    between atoms: _547  and  _548
REMARK  227  A    between atoms: _547  and  _550
REMARK  228  A    between atoms: _550  and  _551
REMARK  229  A    between atoms: _551  and  _552
REMARK  230  A    between atoms: _552  and  _553
REMARK  231  A    between atoms: _562  and  _564
REMARK  232  A    between atoms: _564  and  _565
REMARK  233  A    between atoms: _564  and  _567
REMARK  234  A    between atoms: _567  and  _568
REMARK  235  A    between atoms: _573  and  _575
REMARK  236  A    between atoms: _575  and  _576
REMARK  237  A    between atoms: _575  and  _578
REMARK  238  A    between atoms: _578  and  _579
REMARK  239  A    between atoms: _579  and  _580
REMARK  240  A    between atoms: _583  and  _585
REMARK  241  A    between atoms: _585  and  _586
REMARK  242  A    between atoms: _589  and  _591
REMARK  243  A    between atoms: _591  and  _592
REMARK  244  A    between atoms: _591  and  _594
REMARK  245  A    between atoms: _597  and  _599
REMARK  246  A    between atoms: _599  and  _600
REMARK  247  A    between atoms: _599  and  _602
REMARK  248  A    between atoms: _602  and  _603
REMARK  249  A    between atoms: _606  and  _608
REMARK  250  A    between atoms: _608  and  _609
REMARK  251  A    between atoms: _612  and  _614
REMARK  252  A    between atoms: _614  and  _615
REMARK  253  A    between atoms: _617  and  _619
REMARK  254  A    between atoms: _619  and  _620
REMARK  255  A    between atoms: _622  and  _624
REMARK  256  A    between atoms: _624  and  _625
REMARK  257  A    between atoms: _627  and  _629
REMARK  258  A    between atoms: _629  and  _630
REMARK  259  A    between atoms: _629  and  _632
REMARK  260  A    between atoms: _632  and  _633
REMARK  261  A    between atoms: _639  and  _641
REMARK  262  A    between atoms: _641  and  _642
REMARK  263  A    between atoms: _641  and  _644
REMARK  264  A    between atoms: _644  and  _645
REMARK  265  A    between atoms: _648  and  _650
REMARK  266  A    between atoms: _650  and  _651
REMARK  267  A    between atoms: _650  and  _653
REMARK  268  A    between atoms: _653  and  _654
REMARK  269  A    between atoms: _659  and  _661
REMARK  270  A    between atoms: _661  and  _662
REMARK  271  A    between atoms: _665  and  _667
REMARK  272  A    between atoms: _667  and  _668
REMARK  273  A    between atoms: _667  and  _670
REMARK  274  A    between atoms: _670  and  _671
REMARK  275  A    between atoms: _674  and  _676
REMARK  276  A    between atoms: _676  and  _677
REMARK  277  A    between atoms: _676  and  _679
REMARK  278  A    between atoms: _679  and  _680
REMARK  279  A    between atoms: _680  and  _681
REMARK  280  A    between atoms: _686  and  _688
REMARK  281  A    between atoms: _688  and  _689
REMARK  282  A    between atoms: _688  and  _691
REMARK  283  A    between atoms: _691  and  _692
REMARK                            x       y       z     vdW  Elec       q    Type
REMARK                         _______ _______ _______ _____ _____    ______ ____
ROOT
ATOM      1  C   LEU A   1       5.879 -43.203 -18.045  0.00  0.00    +0.238 C 
ATOM      2  O   LEU A   1       6.276 -42.069 -18.327  0.00  0.00    -0.274 OA
ATOM      3  N   GLN A   2       6.488 -44.322 -18.440  0.00  0.00    -0.298 N 
ATOM      4  H   GLN A   2       6.146 -45.224 -18.051  0.00  0.00    +0.150 HD
ENDROOT
BRANCH   1   5
ATOM      5  CA  LEU A   1       4.632 -43.403 -17.179  0.00  0.00    +0.145 C 
BRANCH   5   6
ATOM      6  N   LEU A   1       4.659 -42.619 -15.944  0.00  0.00    -0.238 NA
ATOM      7  H   LEU A   1       3.912 -41.910 -15.795  0.00  0.00    +0.142 HD
ENDBRANCH   5   6
BRANCH   5   8
ATOM      8  CB  LEU A   1       3.366 -43.066 -17.980  0.00  0.00    +0.026 C 
BRANCH   8   9
ATOM      9  CG  LEU A   1       3.076 -43.755 -19.319  0.00  0.00    +0.002 C 
ATOM     10  CD2 LEU A   1       2.769 -45.239 -19.142  0.00  0.00    +0.000 C 
ATOM     11  CD1 LEU A   1       1.924 -43.053 -20.027  0.00  0.00    +0.000 C 
ENDBRANCH   8   9
ENDBRANCH   5   8
ENDBRANCH   1   5
BRANCH   3  12
ATOM     12  CA  GLN A   2       7.613 -44.366 -19.390  0.00  0.00    +0.137 C 
BRANCH  12  13
ATOM     13  C   GLN A   2       8.898 -43.669 -18.924  0.00  0.00    +0.227 C 
ATOM     14  O   GLN A   2       9.855 -43.535 -19.691  0.00  0.00    -0.286 OA
ENDBRANCH  12  13
BRANCH  12  15
ATOM     15  CB  GLN A   2       7.180 -43.869 -20.775  0.00  0.00    +0.037 C 
BRANCH  15  16
ATOM     16  CG  GLN A   2       6.131 -44.748 -21.431  0.00  0.00    +0.087 C 
BRANCH  16  17
ATOM     17  CD  GLN A   2       5.554 -44.136 -22.681  0.00  0.00    +0.219 C 
ATOM     18  NE2 GLN A   2       4.372 -43.546 -22.554  0.00  0.00    -0.329 N 
ATOM     19 HE21 GLN A   2       3.902 -43.517 -21.627  0.00  0.00    +0.145 HD
ATOM     20 HE22 GLN A   2       3.915 -43.113 -23.382  0.00  0.00    +0.145 HD
ATOM     21  OE1 GLN A   2       6.154 -44.199 -23.755  0.00  0.00    -0.275 OA
ENDBRANCH  16  17
ENDBRANCH  15  16
ENDBRANCH  12  15
ENDBRANCH   3  12
TORSDOF 9
REMARK  Name = ../refined-set-2016/3iae/3iae_pocket.pdb
REMARK  283 active torsions:
REMARK  status: ('A' for Active; 'I' for Inactive)
REMARK    1  A    between atoms: _1  and  _3
REMARK    2  A    between atoms: _3  and  _4
REMARK    3  A    between atoms: _3  and  _6
REMARK    4  A    between atoms: _6  and  _7
REMARK    5  A    between atoms: _10  and  _12
REMARK    6  A    between atoms: _12  and  _13
REMARK    7  A    between atoms: _12  and  _15
REMARK    8  A    between atoms: _15  and  _16
REMARK    9  A    between atoms: _21  and  _22
REMARK   10  A    between atoms: _24  and  _26
REMARK   11  A    between atoms: _26  and  _27
REMARK   12  A    between atoms: _26  and  _29
REMARK   13  A    between atoms: _29  and  _30
REMARK   14  A    between atoms: _34  and  _35
REMARK   15  A    between atoms: _40  and  _42
REMARK   16  A    between atoms: _42  and  _43
REMARK   17  A    between atoms: _42  and  _45
REMARK   18  A    between atoms: _45  and  _46
REMARK   19  A    between atoms: _49  and  _51
REMARK   20  A    between atoms: _51  and  _52
REMARK   21  A    between atoms: _54  and  _56
REMARK   22  A    between atoms: _56  and  _57
REMARK   23  A    between atoms: _60  and  _62
REMARK   24  A    between atoms: _62  and  _63
REMARK   25  A    between atoms: _62  and  _65
REMARK   26  A    between atoms: _65  and  _66
REMARK   27  A    between atoms: _69  and  _71
REMARK   28  A    between atoms: _71  and  _72
REMARK   29  A    between atoms: _71  and  _74
REMARK   30  A    between atoms: _74  and  _75
REMARK   31  A    between atoms: _78  and  _80
REMARK   32  A    between atoms: _80  and  _81
REMARK   33  A    between atoms: _80  and  _83
REMARK   34  A    between atoms: _83  and  _84
REMARK   35  A    between atoms: _89  and  _90
REMARK   36  A    between atoms: _92  and  _94
REMARK   37  A    between atoms: _94  and  _95
REMARK   38  A    between atoms: _94  and  _97
REMARK   39  A    between atoms: _97  and  _98
REMARK   40  A    between atoms: _101  and  _103
REMARK   41  A    between atoms: _103  and  _104
REMARK   42  A    between atoms: _103  and  _106
REMARK   43  A    between atoms: _106  and  _107
REMARK   44  A    between atoms: _117  and  _119
REMARK   45  A    between atoms: _119  and  _120
REMARK   46  A    between atoms: _119  and  _122
REMARK   47  A    between atoms: _122  and  _123
REMARK   48  A    between atoms: _126  and  _128
REMARK   49  A    between atoms: _128  and  _129
REMARK   50  A    between atoms: _128  and  _131
REMARK   51  A    between atoms: _131  and  _132
REMARK   52  A    between atoms: _137  and  _139
REMARK   53  A    between atoms: _139  and  _140
REMARK   54  A    between atoms: _142  and  _144
REMARK   55  A    between atoms: _144  and  _145
REMARK   56  A    between atoms: _144  and  _147
REMARK   57  A    between atoms: _147  and  _148
REMARK   58  A    between atoms: _153  and  _154
REMARK   59  A    between atoms: _156  and  _158
REMARK   60  A    between atoms: _158  and  _159
REMARK   61  A    between atoms: _158  and  _161
REMARK   62  A    between atoms: _161  and  _162
REMARK   63  A    between atoms: _165  and  _167
REMARK   64  A    between atoms: _167  and  _168
REMARK   65  A    between atoms: _170  and  _172
REMARK   66  A    between atoms: _172  and  _173
REMARK   67  A    between atoms: _172  and  _175
REMARK   68  A    between atoms: _175  and  _176
REMARK   69  A    between atoms: _178  and  _180
REMARK   70  A    between atoms: _180  and  _181
REMARK   71  A    between atoms: _180  and  _183
REMARK   72  A    between atoms: _183  and  _184
REMARK   73  A    between atoms: _184  and  _185
REMARK   74  A    between atoms: _187  and  _189
REMARK   75  A    between atoms: _189  and  _190
REMARK   76  A    between atoms: _192  and  _194
REMARK   77  A    between atoms: _194  and  _195
REMARK   78  A    between atoms: _194  and  _197
REMARK   79  A    between atoms: _200  and  _202
REMARK   80  A    between atoms: _202  and  _203
REMARK   81  A    between atoms: _202  and  _205
REMARK   82  A    between atoms: _205  and  _206
REMARK   83  A    between atoms: _209  and  _211
REMARK   84  A    between atoms: _211  and  _212
REMARK   85  A    between atoms: _214  and  _216
REMARK   86  A    between atoms: _216  and  _217
REMARK   87  A    between atoms: _216  and  _219
REMARK   88  A    between atoms: _219  and  _220
REMARK   89  A    between atoms: _220  and  _221
REMARK   90  A    between atoms: _221  and  CA_702
REMARK   91  A    between atoms: _223  and  _225
REMARK   92  A    between atoms: _225  and  _226
REMARK   93  A    between atoms: _228  and  _230
REMARK   94  A    between atoms: _230  and  _231
REMARK   95  A    between atoms: _230  and  _233
REMARK   96  A    between atoms: _233  and  _234
REMARK   97  A    between atoms: _236  and  _238
REMARK   98  A    between atoms: _238  and  _239
REMARK   99  A    between atoms: _238  and  _241
REMARK  100  A    between atoms: _244  and  _246
REMARK  101  A    between atoms: _246  and  _247
REMARK  102  A    between atoms: _249  and  _251
REMARK  103  A    between atoms: _251  and  _252
REMARK  104  A    between atoms: _251  and  _254
REMARK  105  A    between atoms: _254  and  _255
REMARK  106  A    between atoms: _260  and  _261
REMARK  107  A    between atoms: _263  and  _265
REMARK  108  A    between atoms: _265  and  _266
REMARK  109  A    between atoms: _265  and  _268
REMARK  110  A    between atoms: _268  and  _269
REMARK  111  A    between atoms: _272  and  _274
REMARK  112  A    between atoms: _274  and  _275
REMARK  113  A    between atoms: _274  and  _277
REMARK  114  A    between atoms: _275  and  _276
REMARK  115  A    between atoms: _275  and  _281
REMARK  116  A    between atoms: _276  and  CA_702
REMARK  117  A    between atoms: _277  and  _278
REMARK  118  A    between atoms: _278  and  _279
REMARK  119  A    between atoms: _281  and  _283
REMARK  120  A    between atoms: _283  and  _284
REMARK  121  A    between atoms: _283  and  _286
REMARK  122  A    between atoms: _286  and  _287
REMARK  123  A    between atoms: _292  and  _294
REMARK  124  A    between atoms: _294  and  _295
REMARK  125  A    between atoms: _294  and  _297
REMARK  126  A    between atoms: _297  and  _298
REMARK  127  A    between atoms: _303  and  _305
REMARK  128  A    between atoms: _305  and  _306
REMARK  129  A    between atoms: _305  and  _308
REMARK  130  A    between atoms: _308  and  _309
REMARK  131  A    between atoms: _309  and  _310
REMARK  132  A    between atoms: _315  and  _317
REMARK  133  A    between atoms: _317  and  _318
REMARK  134  A    between atoms: _317  and  _320
REMARK  135  A    between atoms: _320  and  _321
REMARK  136  A    between atoms: _323  and  _325
REMARK  137  A    between atoms: _325  and  _326
REMARK  138  A    between atoms: _325  and  _328
REMARK  139  A    between atoms: _328  and  _329
REMARK  140  A    between atoms: _339  and  _341
REMARK  141  A    between atoms: _341  and  _342
REMARK  142  A    between atoms: _344  and  _346
REMARK  143  A    between atoms: _346  and  _347
REMARK  144  A    between atoms: _350  and  _352
REMARK  145  A    between atoms: _352  and  _353
REMARK  146  A    between atoms: _352  and  _355
REMARK  147  A    between atoms: _355  and  _356
REMARK  148  A    between atoms: _359  and  _361
REMARK  149  A    between atoms: _361  and  _362
REMARK  150  A    between atoms: _361  and  _364
REMARK  151  A    between atoms: _364  and  _365
REMARK  152  A    between atoms: _368  and  _370
REMARK  153  A    between atoms: _370  and  _371
REMARK  154  A    between atoms: _370  and  _373
REMARK  155  A    between atoms: _373  and  _374
REMARK  156  A    between atoms: _379  and  _381
REMARK  157  A    between atoms: _381  and  _382
REMARK  158  A    between atoms: _381  and  _384
REMARK  159  A    between atoms: _384  and  _385
REMARK  160  A    between atoms: _391  and  _393
REMARK  161  A    between atoms: _393  and  _394
REMARK  162  A    between atoms: _393  and  _396
REMARK  163  A    between atoms: _396  and  _397
REMARK  164  A    between atoms: _397  and  _398
REMARK  165  A    between atoms: _403  and  _405
REMARK  166  A    between atoms: _405  and  _406
REMARK  167  A    between atoms: _408  and  _410
REMARK  168  A    between atoms: _410  and  _411
REMARK  169  A    between atoms: _410  and  _413
REMARK  170  A    between atoms: _413  and  _414
REMARK  171  A    between atoms: _417  and  _419
REMARK  172  A    between atoms: _419  and  _420
REMARK  173  A    between atoms: _419  and  _422
REMARK  174  A    between atoms: _422  and  _423
REMARK  175  A    between atoms: _426  and  _428
REMARK  176  A    between atoms: _428  and  _429
REMARK  177  A    between atoms: _428  and  _431
REMARK  178  A    between atoms: _431  and  _432
REMARK  179  A    between atoms: _437  and  _438
REMARK  180  A    between atoms: _440  and  _442
REMARK  181  A    between atoms: _442  and  _443
REMARK  182  A    between atoms: _442  and  _445
REMARK  183  A    between atoms: _448  and  _450
REMARK  184  A    between atoms: _450  and  _451
REMARK  185  A    between atoms: _454  and  _456
REMARK  186  A    between atoms: _456  and  _457
REMARK  187  A    between atoms: _456  and  _459
REMARK  188  A    between atoms: _459  and  _460
REMARK  189  A    between atoms: _463  and  _465
REMARK  190  A    between atoms: _465  and  _466
REMARK  191  A    between atoms: _465  and  _468
REMARK  192  A    between atoms: _468  and  _469
REMARK  193  A    between atoms: _469  and  _470
REMARK  194  A    between atoms: _473  and  _475
REMARK  195  A    between atoms: _475  and  _476
REMARK  196  A    between atoms: _475  and  _478
REMARK  197  A    between atoms: _478  and  _479
REMARK  198  A    between atoms: _479  and  _480
REMARK  199  A    between atoms: _483  and  _485
REMARK  200  A    between atoms: _485  and  _486
REMARK  201  A    between atoms: _485  and  _488
REMARK  202  A    between atoms: _488  and  _489
REMARK  203  A    between atoms: _492  and  _494
REMARK  204  A    between atoms: _494  and  _495
REMARK  205  A    between atoms: _494  and  _497
REMARK  206  A    between atoms: _497  and  _498
REMARK  207  A    between atoms: _503  and  _505
REMARK  208  A    between atoms: _505  and  _506
REMARK  209  A    between atoms: _508  and  _510
REMARK  210  A    between atoms: _510  and  _511
REMARK  211  A    between atoms: _510  and  _513
REMARK  212  A    between atoms: _513  and  _514
REMARK  213  A    between atoms: _516  and  _518
REMARK  214  A    between atoms: _518  and  _519
REMARK  215  A    between atoms: _518  and  _521
REMARK  216  A    between atoms: _521  and  _522
REMARK  217  A    between atoms: _527  and  _529
REMARK  218  A    between atoms: _529  and  _530
REMARK  219  A    between atoms: _529  and  _532
REMARK  220  A    between atoms: _532  and  _533
REMARK  221  A    between atoms: _536  and  _538
REMARK  222  A    between atoms: _538  and  _539
REMARK  223  A    between atoms: _538  and  _541
REMARK  224  A    between atoms: _541  and  _542
REMARK  225  A    between atoms: _545  and  _547
REMARK  226  A    between atoms: _547  and  _548
REMARK  227  A    between atoms: _547  and  _550
REMARK  228  A    between atoms: _550  and  _551
REMARK  229  A    between atoms: _551  and  _552
REMARK  230  A    between atoms: _552  and  _553
REMARK  231  A    between atoms: _562  and  _564
REMARK  232  A    between atoms: _564  and  _565
REMARK  233  A    between atoms: _564  and  _567
REMARK  234  A    between atoms: _567  and  _568
REMARK  235  A    between atoms: _573  and  _575
REMARK  236  A    between atoms: _575  and  _576
REMARK  237  A    between atoms: _575  and  _578
REMARK  238  A    between atoms: _578  and  _579
REMARK  239  A    between atoms: _579  and  _580
REMARK  240  A    between atoms: _583  and  _585
REMARK  241  A    between atoms: _585  and  _586
REMARK  242  A    between atoms: _589  and  _591
REMARK  243  A    between atoms: _591  and  _592
REMARK  244  A    between atoms: _591  and  _594
REMARK  245  A    between atoms: _597  and  _599
REMARK  246  A    between atoms: _599  and  _600
REMARK  247  A    between atoms: _599  and  _602
REMARK  248  A    between atoms: _602  and  _603
REMARK  249  A    between atoms: _606  and  _608
REMARK  250  A    between atoms: _608  and  _609
REMARK  251  A    between atoms: _612  and  _614
REMARK  252  A    between atoms: _614  and  _615
REMARK  253  A    between atoms: _617  and  _619
REMARK  254  A    between atoms: _619  and  _620
REMARK  255  A    between atoms: _622  and  _624
REMARK  256  A    between atoms: _624  and  _625
REMARK  257  A    between atoms: _627  and  _629
REMARK  258  A    between atoms: _629  and  _630
REMARK  259  A    between atoms: _629  and  _632
REMARK  260  A    between atoms: _632  and  _633
REMARK  261  A    between atoms: _639  and  _641
REMARK  262  A    between atoms: _641  and  _642
REMARK  263  A    between atoms: _641  and  _644
REMARK  264  A    between atoms: _644  and  _645
REMARK  265  A    between atoms: _648  and  _650
REMARK  266  A    between atoms: _650  and  _651
REMARK  267  A    between atoms: _650  and  _653
REMARK  268  A    between atoms: _653  and  _654
REMARK  269  A    between atoms: _659  and  _661
REMARK  270  A    between atoms: _661  and  _662
REMARK  271  A    between atoms: _665  and  _667
REMARK  272  A    between atoms: _667  and  _668
REMARK  273  A    between atoms: _667  and  _670
REMARK  274  A    between atoms: _670  and  _671
REMARK  275  A    between atoms: _674  and  _676
REMARK  276  A    between atoms: _676  and  _677
REMARK  277  A    between atoms: _676  and  _679
REMARK  278  A    between atoms: _679  and  _680
REMARK  279  A    between atoms: _680  and  _681
REMARK  280  A    between atoms: _686  and  _688
REMARK  281  A    between atoms: _688  and  _689
REMARK  282  A    between atoms: _688  and  _691
REMARK  283  A    between atoms: _691  and  _692
REMARK                            x       y       z     vdW  Elec       q    Type
REMARK                         _______ _______ _______ _____ _____    ______ ____
ROOT
ATOM      1  CG  TRP A   1       6.718 -35.317 -23.127  0.00  0.00    +0.000 A 
ATOM      2  CD2 TRP A   1       5.458 -35.834 -22.681  0.00  0.00    +0.000 A 
ATOM      3  CE3 TRP A   1       5.048 -36.552 -21.549  0.00  0.00    +0.000 A 
ATOM      4  CZ3 TRP A   1       3.703 -36.897 -21.426  0.00  0.00    +0.000 A 
ATOM      5  CH2 TRP A   1       2.768 -36.533 -22.412  0.00  0.00    +0.000 A 
ATOM      6  CZ2 TRP A   1       3.143 -35.830 -23.529  0.00  0.00    +0.000 A 
ATOM      7  CE2 TRP A   1       4.495 -35.487 -23.654  0.00  0.00    +0.000 A 
ATOM      8  NE1 TRP A   1       5.143 -34.799 -24.646  0.00  0.00    +0.000 N 
ATOM      9  HE1 TRP A   1       4.698 -34.408 -25.501  0.00  0.00    +0.000 HD
ATOM     10  CD1 TRP A   1       6.475 -34.709 -24.329  0.00  0.00    +0.000 A 
ENDROOT
BRANCH   1  11
ATOM     11  CB  TRP A   1       8.049 -35.457 -22.431  0.00  0.00    +0.000 C 
BRANCH  11  12
ATOM     12  CA  TRP A   1       9.177 -34.610 -23.032  0.00  0.00    +0.000 C 
BRANCH  12  13
ATOM     13  N   TRP A   1      10.480 -35.111 -22.585  0.00  0.00    +0.000 NA
ATOM     14  H   TRP A   1      10.503 -35.920 -21.932  0.00  0.00    +0.000 HD
ENDBRANCH  12  13
BRANCH  12  15
ATOM     15  C   TRP A   1       8.998 -33.137 -22.678  0.00  0.00    +0.000 C 
ATOM     16  O   TRP A   1       8.512 -32.348 -23.489  0.00  0.00    +0.000 OA
ENDBRANCH  12  15
ENDBRANCH  11  12
ENDBRANCH   1  11
TORSDOF 4
REMARK  Name = ../refined-set-2016/3iae/3iae_pocket.pdb
REMARK  283 active torsions:
REMARK  status: ('A' for Active; 'I' for Inactive)
REMARK    1  A    between atoms: _1  and  _3
REMARK    2  A    between atoms: _3  and  _4
REMARK    3  A    between atoms: _3  and  _6
REMARK    4  A    between atoms: _6  and  _7
REMARK    5  A    between atoms: _10  and  _12
REMARK    6  A    between atoms: _12  and  _13
REMARK    7  A    between atoms: _12  and  _15
REMARK    8  A    between atoms: _15  and  _16
REMARK    9  A    between atoms: _21  and  _22
REMARK   10  A    between atoms: _24  and  _26
REMARK   11  A    between atoms: _26  and  _27
REMARK   12  A    between atoms: _26  and  _29
REMARK   13  A    between atoms: _29  and  _30
REMARK   14  A    between atoms: _34  and  _35
REMARK   15  A    between atoms: _40  and  _42
REMARK   16  A    between atoms: _42  and  _43
REMARK   17  A    between atoms: _42  and  _45
REMARK   18  A    between atoms: _45  and  _46
REMARK   19  A    between atoms: _49  and  _51
REMARK   20  A    between atoms: _51  and  _52
REMARK   21  A    between atoms: _54  and  _56
REMARK   22  A    between atoms: _56  and  _57
REMARK   23  A    between atoms: _60  and  _62
REMARK   24  A    between atoms: _62  and  _63
REMARK   25  A    between atoms: _62  and  _65
REMARK   26  A    between atoms: _65  and  _66
REMARK   27  A    between atoms: _69  and  _71
REMARK   28  A    between atoms: _71  and  _72
REMARK   29  A    between atoms: _71  and  _74
REMARK   30  A    between atoms: _74  and  _75
REMARK   31  A    between atoms: _78  and  _80
REMARK   32  A    between atoms: _80  and  _81
REMARK   33  A    between atoms: _80  and  _83
REMARK   34  A    between atoms: _83  and  _84
REMARK   35  A    between atoms: _89  and  _90
REMARK   36  A    between atoms: _92  and  _94
REMARK   37  A    between atoms: _94  and  _95
REMARK   38  A    between atoms: _94  and  _97
REMARK   39  A    between atoms: _97  and  _98
REMARK   40  A    between atoms: _101  and  _103
REMARK   41  A    between atoms: _103  and  _104
REMARK   42  A    between atoms: _103  and  _106
REMARK   43  A    between atoms: _106  and  _107
REMARK   44  A    between atoms: _117  and  _119
REMARK   45  A    between atoms: _119  and  _120
REMARK   46  A    between atoms: _119  and  _122
REMARK   47  A    between atoms: _122  and  _123
REMARK   48  A    between atoms: _126  and  _128
REMARK   49  A    between atoms: _128  and  _129
REMARK   50  A    between atoms: _128  and  _131
REMARK   51  A    between atoms: _131  and  _132
REMARK   52  A    between atoms: _137  and  _139
REMARK   53  A    between atoms: _139  and  _140
REMARK   54  A    between atoms: _142  and  _144
REMARK   55  A    between atoms: _144  and  _145
REMARK   56  A    between atoms: _144  and  _147
REMARK   57  A    between atoms: _147  and  _148
REMARK   58  A    between atoms: _153  and  _154
REMARK   59  A    between atoms: _156  and  _158
REMARK   60  A    between atoms: _158  and  _159
REMARK   61  A    between atoms: _158  and  _161
REMARK   62  A    between atoms: _161  and  _162
REMARK   63  A    between atoms: _165  and  _167
REMARK   64  A    between atoms: _167  and  _168
REMARK   65  A    between atoms: _170  and  _172
REMARK   66  A    between atoms: _172  and  _173
REMARK   67  A    between atoms: _172  and  _175
REMARK   68  A    between atoms: _175  and  _176
REMARK   69  A    between atoms: _178  and  _180
REMARK   70  A    between atoms: _180  and  _181
REMARK   71  A    between atoms: _180  and  _183
REMARK   72  A    between atoms: _183  and  _184
REMARK   73  A    between atoms: _184  and  _185
REMARK   74  A    between atoms: _187  and  _189
REMARK   75  A    between atoms: _189  and  _190
REMARK   76  A    between atoms: _192  and  _194
REMARK   77  A    between atoms: _194  and  _195
REMARK   78  A    between atoms: _194  and  _197
REMARK   79  A    between atoms: _200  and  _202
REMARK   80  A    between atoms: _202  and  _203
REMARK   81  A    between atoms: _202  and  _205
REMARK   82  A    between atoms: _205  and  _206
REMARK   83  A    between atoms: _209  and  _211
REMARK   84  A    between atoms: _211  and  _212
REMARK   85  A    between atoms: _214  and  _216
REMARK   86  A    between atoms: _216  and  _217
REMARK   87  A    between atoms: _216  and  _219
REMARK   88  A    between atoms: _219  and  _220
REMARK   89  A    between atoms: _220  and  _221
REMARK   90  A    between atoms: _221  and  CA_702
REMARK   91  A    between atoms: _223  and  _225
REMARK   92  A    between atoms: _225  and  _226
REMARK   93  A    between atoms: _228  and  _230
REMARK   94  A    between atoms: _230  and  _231
REMARK   95  A    between atoms: _230  and  _233
REMARK   96  A    between atoms: _233  and  _234
REMARK   97  A    between atoms: _236  and  _238
REMARK   98  A    between atoms: _238  and  _239
REMARK   99  A    between atoms: _238  and  _241
REMARK  100  A    between atoms: _244  and  _246
REMARK  101  A    between atoms: _246  and  _247
REMARK  102  A    between atoms: _249  and  _251
REMARK  103  A    between atoms: _251  and  _252
REMARK  104  A    between atoms: _251  and  _254
REMARK  105  A    between atoms: _254  and  _255
REMARK  106  A    between atoms: _260  and  _261
REMARK  107  A    between atoms: _263  and  _265
REMARK  108  A    between atoms: _265  and  _266
REMARK  109  A    between atoms: _265  and  _268
REMARK  110  A    between atoms: _268  and  _269
REMARK  111  A    between atoms: _272  and  _274
REMARK  112  A    between atoms: _274  and  _275
REMARK  113  A    between atoms: _274  and  _277
REMARK  114  A    between atoms: _275  and  _276
REMARK  115  A    between atoms: _275  and  _281
REMARK  116  A    between atoms: _276  and  CA_702
REMARK  117  A    between atoms: _277  and  _278
REMARK  118  A    between atoms: _278  and  _279
REMARK  119  A    between atoms: _281  and  _283
REMARK  120  A    between atoms: _283  and  _284
REMARK  121  A    between atoms: _283  and  _286
REMARK  122  A    between atoms: _286  and  _287
REMARK  123  A    between atoms: _292  and  _294
REMARK  124  A    between atoms: _294  and  _295
REMARK  125  A    between atoms: _294  and  _297
REMARK  126  A    between atoms: _297  and  _298
REMARK  127  A    between atoms: _303  and  _305
REMARK  128  A    between atoms: _305  and  _306
REMARK  129  A    between atoms: _305  and  _308
REMARK  130  A    between atoms: _308  and  _309
REMARK  131  A    between atoms: _309  and  _310
REMARK  132  A    between atoms: _315  and  _317
REMARK  133  A    between atoms: _317  and  _318
REMARK  134  A    between atoms: _317  and  _320
REMARK  135  A    between atoms: _320  and  _321
REMARK  136  A    between atoms: _323  and  _325
REMARK  137  A    between atoms: _325  and  _326
REMARK  138  A    between atoms: _325  and  _328
REMARK  139  A    between atoms: _328  and  _329
REMARK  140  A    between atoms: _339  and  _341
REMARK  141  A    between atoms: _341  and  _342
REMARK  142  A    between atoms: _344  and  _346
REMARK  143  A    between atoms: _346  and  _347
REMARK  144  A    between atoms: _350  and  _352
REMARK  145  A    between atoms: _352  and  _353
REMARK  146  A    between atoms: _352  and  _355
REMARK  147  A    between atoms: _355  and  _356
REMARK  148  A    between atoms: _359  and  _361
REMARK  149  A    between atoms: _361  and  _362
REMARK  150  A    between atoms: _361  and  _364
REMARK  151  A    between atoms: _364  and  _365
REMARK  152  A    between atoms: _368  and  _370
REMARK  153  A    between atoms: _370  and  _371
REMARK  154  A    between atoms: _370  and  _373
REMARK  155  A    between atoms: _373  and  _374
REMARK  156  A    between atoms: _379  and  _381
REMARK  157  A    between atoms: _381  and  _382
REMARK  158  A    between atoms: _381  and  _384
REMARK  159  A    between atoms: _384  and  _385
REMARK  160  A    between atoms: _391  and  _393
REMARK  161  A    between atoms: _393  and  _394
REMARK  162  A    between atoms: _393  and  _396
REMARK  163  A    between atoms: _396  and  _397
REMARK  164  A    between atoms: _397  and  _398
REMARK  165  A    between atoms: _403  and  _405
REMARK  166  A    between atoms: _405  and  _406
REMARK  167  A    between atoms: _408  and  _410
REMARK  168  A    between atoms: _410  and  _411
REMARK  169  A    between atoms: _410  and  _413
REMARK  170  A    between atoms: _413  and  _414
REMARK  171  A    between atoms: _417  and  _419
REMARK  172  A    between atoms: _419  and  _420
REMARK  173  A    between atoms: _419  and  _422
REMARK  174  A    between atoms: _422  and  _423
REMARK  175  A    between atoms: _426  and  _428
REMARK  176  A    between atoms: _428  and  _429
REMARK  177  A    between atoms: _428  and  _431
REMARK  178  A    between atoms: _431  and  _432
REMARK  179  A    between atoms: _437  and  _438
REMARK  180  A    between atoms: _440  and  _442
REMARK  181  A    between atoms: _442  and  _443
REMARK  182  A    between atoms: _442  and  _445
REMARK  183  A    between atoms: _448  and  _450
REMARK  184  A    between atoms: _450  and  _451
REMARK  185  A    between atoms: _454  and  _456
REMARK  186  A    between atoms: _456  and  _457
REMARK  187  A    between atoms: _456  and  _459
REMARK  188  A    between atoms: _459  and  _460
REMARK  189  A    between atoms: _463  and  _465
REMARK  190  A    between atoms: _465  and  _466
REMARK  191  A    between atoms: _465  and  _468
REMARK  192  A    between atoms: _468  and  _469
REMARK  193  A    between atoms: _469  and  _470
REMARK  194  A    between atoms: _473  and  _475
REMARK  195  A    between atoms: _475  and  _476
REMARK  196  A    between atoms: _475  and  _478
REMARK  197  A    between atoms: _478  and  _479
REMARK  198  A    between atoms: _479  and  _480
REMARK  199  A    between atoms: _483  and  _485
REMARK  200  A    between atoms: _485  and  _486
REMARK  201  A    between atoms: _485  and  _488
REMARK  202  A    between atoms: _488  and  _489
REMARK  203  A    between atoms: _492  and  _494
REMARK  204  A    between atoms: _494  and  _495
REMARK  205  A    between atoms: _494  and  _497
REMARK  206  A    between atoms: _497  and  _498
REMARK  207  A    between atoms: _503  and  _505
REMARK  208  A    between atoms: _505  and  _506
REMARK  209  A    between atoms: _508  and  _510
REMARK  210  A    between atoms: _510  and  _511
REMARK  211  A    between atoms: _510  and  _513
REMARK  212  A    between atoms: _513  and  _514
REMARK  213  A    between atoms: _516  and  _518
REMARK  214  A    between atoms: _518  and  _519
REMARK  215  A    between atoms: _518  and  _521
REMARK  216  A    between atoms: _521  and  _522
REMARK  217  A    between atoms: _527  and  _529
REMARK  218  A    between atoms: _529  and  _530
REMARK  219  A    between atoms: _529  and  _532
REMARK  220  A    between atoms: _532  and  _533
REMARK  221  A    between atoms: _536  and  _538
REMARK  222  A    between atoms: _538  and  _539
REMARK  223  A    between atoms: _538  and  _541
REMARK  224  A    between atoms: _541  and  _542
REMARK  225  A    between atoms: _545  and  _547
REMARK  226  A    between atoms: _547  and  _548
REMARK  227  A    between atoms: _547  and  _550
REMARK  228  A    between atoms: _550  and  _551
REMARK  229  A    between atoms: _551  and  _552
REMARK  230  A    between atoms: _552  and  _553
REMARK  231  A    between atoms: _562  and  _564
REMARK  232  A    between atoms: _564  and  _565
REMARK  233  A    between atoms: _564  and  _567
REMARK  234  A    between atoms: _567  and  _568
REMARK  235  A    between atoms: _573  and  _575
REMARK  236  A    between atoms: _575  and  _576
REMARK  237  A    between atoms: _575  and  _578
REMARK  238  A    between atoms: _578  and  _579
REMARK  239  A    between atoms: _579  and  _580
REMARK  240  A    between atoms: _583  and  _585
REMARK  241  A    between atoms: _585  and  _586
REMARK  242  A    between atoms: _589  and  _591
REMARK  243  A    between atoms: _591  and  _592
REMARK  244  A    between atoms: _591  and  _594
REMARK  245  A    between atoms: _597  and  _599
REMARK  246  A    between atoms: _599  and  _600
REMARK  247  A    between atoms: _599  and  _602
REMARK  248  A    between atoms: _602  and  _603
REMARK  249  A    between atoms: _606  and  _608
REMARK  250  A    between atoms: _608  and  _609
REMARK  251  A    between atoms: _612  and  _614
REMARK  252  A    between atoms: _614  and  _615
REMARK  253  A    between atoms: _617  and  _619
REMARK  254  A    between atoms: _619  and  _620
REMARK  255  A    between atoms: _622  and  _624
REMARK  256  A    between atoms: _624  and  _625
REMARK  257  A    between atoms: _627  and  _629
REMARK  258  A    between atoms: _629  and  _630
REMARK  259  A    between atoms: _629  and  _632
REMARK  260  A    between atoms: _632  and  _633
REMARK  261  A    between atoms: _639  and  _641
REMARK  262  A    between atoms: _641  and  _642
REMARK  263  A    between atoms: _641  and  _644
REMARK  264  A    between atoms: _644  and  _645
REMARK  265  A    between atoms: _648  and  _650
REMARK  266  A    between atoms: _650  and  _651
REMARK  267  A    between atoms: _650  and  _653
REMARK  268  A    between atoms: _653  and  _654
REMARK  269  A    between atoms: _659  and  _661
REMARK  270  A    between atoms: _661  and  _662
REMARK  271  A    between atoms: _665  and  _667
REMARK  272  A    between atoms: _667  and  _668
REMARK  273  A    between atoms: _667  and  _670
REMARK  274  A    between atoms: _670  and  _671
REMARK  275  A    between atoms: _674  and  _676
REMARK  276  A    between atoms: _676  and  _677
REMARK  277  A    between atoms: _676  and  _679
REMARK  278  A    between atoms: _679  and  _680
REMARK  279  A    between atoms: _680  and  _681
REMARK  280  A    between atoms: _686  and  _688
REMARK  281  A    between atoms: _688  and  _689
REMARK  282  A    between atoms: _688  and  _691
REMARK  283  A    between atoms: _691  and  _692
REMARK                            x       y       z     vdW  Elec       q    Type
REMARK                         _______ _______ _______ _____ _____    ______ ____
ROOT
ATOM      1  O   HOH     1       5.089 -42.033 -25.635  0.00  0.00    +0.000 OA
ENDROOT
TORSDOF 0
REMARK  Name = ../refined-set-2016/3iae/3iae_pocket.pdb
REMARK  283 active torsions:
REMARK  status: ('A' for Active; 'I' for Inactive)
REMARK    1  A    between atoms: _1  and  _3
REMARK    2  A    between atoms: _3  and  _4
REMARK    3  A    between atoms: _3  and  _6
REMARK    4  A    between atoms: _6  and  _7
REMARK    5  A    between atoms: _10  and  _12
REMARK    6  A    between atoms: _12  and  _13
REMARK    7  A    between atoms: _12  and  _15
REMARK    8  A    between atoms: _15  and  _16
REMARK    9  A    between atoms: _21  and  _22
REMARK   10  A    between atoms: _24  and  _26
REMARK   11  A    between atoms: _26  and  _27
REMARK   12  A    between atoms: _26  and  _29
REMARK   13  A    between atoms: _29  and  _30
REMARK   14  A    between atoms: _34  and  _35
REMARK   15  A    between atoms: _40  and  _42
REMARK   16  A    between atoms: _42  and  _43
REMARK   17  A    between atoms: _42  and  _45
REMARK   18  A    between atoms: _45  and  _46
REMARK   19  A    between atoms: _49  and  _51
REMARK   20  A    between atoms: _51  and  _52
REMARK   21  A    between atoms: _54  and  _56
REMARK   22  A    between atoms: _56  and  _57
REMARK   23  A    between atoms: _60  and  _62
REMARK   24  A    between atoms: _62  and  _63
REMARK   25  A    between atoms: _62  and  _65
REMARK   26  A    between atoms: _65  and  _66
REMARK   27  A    between atoms: _69  and  _71
REMARK   28  A    between atoms: _71  and  _72
REMARK   29  A    between atoms: _71  and  _74
REMARK   30  A    between atoms: _74  and  _75
REMARK   31  A    between atoms: _78  and  _80
REMARK   32  A    between atoms: _80  and  _81
REMARK   33  A    between atoms: _80  and  _83
REMARK   34  A    between atoms: _83  and  _84
REMARK   35  A    between atoms: _89  and  _90
REMARK   36  A    between atoms: _92  and  _94
REMARK   37  A    between atoms: _94  and  _95
REMARK   38  A    between atoms: _94  and  _97
REMARK   39  A    between atoms: _97  and  _98
REMARK   40  A    between atoms: _101  and  _103
REMARK   41  A    between atoms: _103  and  _104
REMARK   42  A    between atoms: _103  and  _106
REMARK   43  A    between atoms: _106  and  _107
REMARK   44  A    between atoms: _117  and  _119
REMARK   45  A    between atoms: _119  and  _120
REMARK   46  A    between atoms: _119  and  _122
REMARK   47  A    between atoms: _122  and  _123
REMARK   48  A    between atoms: _126  and  _128
REMARK   49  A    between atoms: _128  and  _129
REMARK   50  A    between atoms: _128  and  _131
REMARK   51  A    between atoms: _131  and  _132
REMARK   52  A    between atoms: _137  and  _139
REMARK   53  A    between atoms: _139  and  _140
REMARK   54  A    between atoms: _142  and  _144
REMARK   55  A    between atoms: _144  and  _145
REMARK   56  A    between atoms: _144  and  _147
REMARK   57  A    between atoms: _147  and  _148
REMARK   58  A    between atoms: _153  and  _154
REMARK   59  A    between atoms: _156  and  _158
REMARK   60  A    between atoms: _158  and  _159
REMARK   61  A    between atoms: _158  and  _161
REMARK   62  A    between atoms: _161  and  _162
REMARK   63  A    between atoms: _165  and  _167
REMARK   64  A    between atoms: _167  and  _168
REMARK   65  A    between atoms: _170  and  _172
REMARK   66  A    between atoms: _172  and  _173
REMARK   67  A    between atoms: _172  and  _175
REMARK   68  A    between atoms: _175  and  _176
REMARK   69  A    between atoms: _178  and  _180
REMARK   70  A    between atoms: _180  and  _181
REMARK   71  A    between atoms: _180  and  _183
REMARK   72  A    between atoms: _183  and  _184
REMARK   73  A    between atoms: _184  and  _185
REMARK   74  A    between atoms: _187  and  _189
REMARK   75  A    between atoms: _189  and  _190
REMARK   76  A    between atoms: _192  and  _194
REMARK   77  A    between atoms: _194  and  _195
REMARK   78  A    between atoms: _194  and  _197
REMARK   79  A    between atoms: _200  and  _202
REMARK   80  A    between atoms: _202  and  _203
REMARK   81  A    between atoms: _202  and  _205
REMARK   82  A    between atoms: _205  and  _206
REMARK   83  A    between atoms: _209  and  _211
REMARK   84  A    between atoms: _211  and  _212
REMARK   85  A    between atoms: _214  and  _216
REMARK   86  A    between atoms: _216  and  _217
REMARK   87  A    between atoms: _216  and  _219
REMARK   88  A    between atoms: _219  and  _220
REMARK   89  A    between atoms: _220  and  _221
REMARK   90  A    between atoms: _221  and  CA_702
REMARK   91  A    between atoms: _223  and  _225
REMARK   92  A    between atoms: _225  and  _226
REMARK   93  A    between atoms: _228  and  _230
REMARK   94  A    between atoms: _230  and  _231
REMARK   95  A    between atoms: _230  and  _233
REMARK   96  A    between atoms: _233  and  _234
REMARK   97  A    between atoms: _236  and  _238
REMARK   98  A    between atoms: _238  and  _239
REMARK   99  A    between atoms: _238  and  _241
REMARK  100  A    between atoms: _244  and  _246
REMARK  101  A    between atoms: _246  and  _247
REMARK  102  A    between atoms: _249  and  _251
REMARK  103  A    between atoms: _251  and  _252
REMARK  104  A    between atoms: _251  and  _254
REMARK  105  A    between atoms: _254  and  _255
REMARK  106  A    between atoms: _260  and  _261
REMARK  107  A    between atoms: _263  and  _265
REMARK  108  A    between atoms: _265  and  _266
REMARK  109  A    between atoms: _265  and  _268
REMARK  110  A    between atoms: _268  and  _269
REMARK  111  A    between atoms: _272  and  _274
REMARK  112  A    between atoms: _274  and  _275
REMARK  113  A    between atoms: _274  and  _277
REMARK  114  A    between atoms: _275  and  _276
REMARK  115  A    between atoms: _275  and  _281
REMARK  116  A    between atoms: _276  and  CA_702
REMARK  117  A    between atoms: _277  and  _278
REMARK  118  A    between atoms: _278  and  _279
REMARK  119  A    between atoms: _281  and  _283
REMARK  120  A    between atoms: _283  and  _284
REMARK  121  A    between atoms: _283  and  _286
REMARK  122  A    between atoms: _286  and  _287
REMARK  123  A    between atoms: _292  and  _294
REMARK  124  A    between atoms: _294  and  _295
REMARK  125  A    between atoms: _294  and  _297
REMARK  126  A    between atoms: _297  and  _298
REMARK  127  A    between atoms: _303  and  _305
REMARK  128  A    between atoms: _305  and  _306
REMARK  129  A    between atoms: _305  and  _308
REMARK  130  A    between atoms: _308  and  _309
REMARK  131  A    between atoms: _309  and  _310
REMARK  132  A    between atoms: _315  and  _317
REMARK  133  A    between atoms: _317  and  _318
REMARK  134  A    between atoms: _317  and  _320
REMARK  135  A    between atoms: _320  and  _321
REMARK  136  A    between atoms: _323  and  _325
REMARK  137  A    between atoms: _325  and  _326
REMARK  138  A    between atoms: _325  and  _328
REMARK  139  A    between atoms: _328  and  _329
REMARK  140  A    between atoms: _339  and  _341
REMARK  141  A    between atoms: _341  and  _342
REMARK  142  A    between atoms: _344  and  _346
REMARK  143  A    between atoms: _346  and  _347
REMARK  144  A    between atoms: _350  and  _352
REMARK  145  A    between atoms: _352  and  _353
REMARK  146  A    between atoms: _352  and  _355
REMARK  147  A    between atoms: _355  and  _356
REMARK  148  A    between atoms: _359  and  _361
REMARK  149  A    between atoms: _361  and  _362
REMARK  150  A    between atoms: _361  and  _364
REMARK  151  A    between atoms: _364  and  _365
REMARK  152  A    between atoms: _368  and  _370
REMARK  153  A    between atoms: _370  and  _371
REMARK  154  A    between atoms: _370  and  _373
REMARK  155  A    between atoms: _373  and  _374
REMARK  156  A    between atoms: _379  and  _381
REMARK  157  A    between atoms: _381  and  _382
REMARK  158  A    between atoms: _381  and  _384
REMARK  159  A    between atoms: _384  and  _385
REMARK  160  A    between atoms: _391  and  _393
REMARK  161  A    between atoms: _393  and  _394
REMARK  162  A    between atoms: _393  and  _396
REMARK  163  A    between atoms: _396  and  _397
REMARK  164  A    between atoms: _397  and  _398
REMARK  165  A    between atoms: _403  and  _405
REMARK  166  A    between atoms: _405  and  _406
REMARK  167  A    between atoms: _408  and  _410
REMARK  168  A    between atoms: _410  and  _411
REMARK  169  A    between atoms: _410  and  _413
REMARK  170  A    between atoms: _413  and  _414
REMARK  171  A    between atoms: _417  and  _419
REMARK  172  A    between atoms: _419  and  _420
REMARK  173  A    between atoms: _419  and  _422
REMARK  174  A    between atoms: _422  and  _423
REMARK  175  A    between atoms: _426  and  _428
REMARK  176  A    between atoms: _428  and  _429
REMARK  177  A    between atoms: _428  and  _431
REMARK  178  A    between atoms: _431  and  _432
REMARK  179  A    between atoms: _437  and  _438
REMARK  180  A    between atoms: _440  and  _442
REMARK  181  A    between atoms: _442  and  _443
REMARK  182  A    between atoms: _442  and  _445
REMARK  183  A    between atoms: _448  and  _450
REMARK  184  A    between atoms: _450  and  _451
REMARK  185  A    between atoms: _454  and  _456
REMARK  186  A    between atoms: _456  and  _457
REMARK  187  A    between atoms: _456  and  _459
REMARK  188  A    between atoms: _459  and  _460
REMARK  189  A    between atoms: _463  and  _465
REMARK  190  A    between atoms: _465  and  _466
REMARK  191  A    between atoms: _465  and  _468
REMARK  192  A    between atoms: _468  and  _469
REMARK  193  A    between atoms: _469  and  _470
REMARK  194  A    between atoms: _473  and  _475
REMARK  195  A    between atoms: _475  and  _476
REMARK  196  A    between atoms: _475  and  _478
REMARK  197  A    between atoms: _478  and  _479
REMARK  198  A    between atoms: _479  and  _480
REMARK  199  A    between atoms: _483  and  _485
REMARK  200  A    between atoms: _485  and  _486
REMARK  201  A    between atoms: _485  and  _488
REMARK  202  A    between atoms: _488  and  _489
REMARK  203  A    between atoms: _492  and  _494
REMARK  204  A    between atoms: _494  and  _495
REMARK  205  A    between atoms: _494  and  _497
REMARK  206  A    between atoms: _497  and  _498
REMARK  207  A    between atoms: _503  and  _505
REMARK  208  A    between atoms: _505  and  _506
REMARK  209  A    between atoms: _508  and  _510
REMARK  210  A    between atoms: _510  and  _511
REMARK  211  A    between atoms: _510  and  _513
REMARK  212  A    between atoms: _513  and  _514
REMARK  213  A    between atoms: _516  and  _518
REMARK  214  A    between atoms: _518  and  _519
REMARK  215  A    between atoms: _518  and  _521
REMARK  216  A    between atoms: _521  and  _522
REMARK  217  A    between atoms: _527  and  _529
REMARK  218  A    between atoms: _529  and  _530
REMARK  219  A    between atoms: _529  and  _532
REMARK  220  A    between atoms: _532  and  _533
REMARK  221  A    between atoms: _536  and  _538
REMARK  222  A    between atoms: _538  and  _539
REMARK  223  A    between atoms: _538  and  _541
REMARK  224  A    between atoms: _541  and  _542
REMARK  225  A    between atoms: _545  and  _547
REMARK  226  A    between atoms: _547  and  _548
REMARK  227  A    between atoms: _547  and  _550
REMARK  228  A    between atoms: _550  and  _551
REMARK  229  A    between atoms: _551  and  _552
REMARK  230  A    between atoms: _552  and  _553
REMARK  231  A    between atoms: _562  and  _564
REMARK  232  A    between atoms: _564  and  _565
REMARK  233  A    between atoms: _564  and  _567
REMARK  234  A    between atoms: _567  and  _568
REMARK  235  A    between atoms: _573  and  _575
REMARK  236  A    between atoms: _575  and  _576
REMARK  237  A    between atoms: _575  and  _578
REMARK  238  A    between atoms: _578  and  _579
REMARK  239  A    between atoms: _579  and  _580
REMARK  240  A    between atoms: _583  and  _585
REMARK  241  A    between atoms: _585  and  _586
REMARK  242  A    between atoms: _589  and  _591
REMARK  243  A    between atoms: _591  and  _592
REMARK  244  A    between atoms: _591  and  _594
REMARK  245  A    between atoms: _597  and  _599
REMARK  246  A    between atoms: _599  and  _600
REMARK  247  A    between atoms: _599  and  _602
REMARK  248  A    between atoms: _602  and  _603
REMARK  249  A    between atoms: _606  and  _608
REMARK  250  A    between atoms: _608  and  _609
REMARK  251  A    between atoms: _612  and  _614
REMARK  252  A    between atoms: _614  and  _615
REMARK  253  A    between atoms: _617  and  _619
REMARK  254  A    between atoms: _619  and  _620
REMARK  255  A    between atoms: _622  and  _624
REMARK  256  A    between atoms: _624  and  _625
REMARK  257  A    between atoms: _627  and  _629
REMARK  258  A    between atoms: _629  and  _630
REMARK  259  A    between atoms: _629  and  _632
REMARK  260  A    between atoms: _632  and  _633
REMARK  261  A    between atoms: _639  and  _641
REMARK  262  A    between atoms: _641  and  _642
REMARK  263  A    between atoms: _641  and  _644
REMARK  264  A    between atoms: _644  and  _645
REMARK  265  A    between atoms: _648  and  _650
REMARK  266  A    between atoms: _650  and  _651
REMARK  267  A    between atoms: _650  and  _653
REMARK  268  A    between atoms: _653  and  _654
REMARK  269  A    between atoms: _659  and  _661
REMARK  270  A    between atoms: _661  and  _662
REMARK  271  A    between atoms: _665  and  _667
REMARK  272  A    between atoms: _667  and  _668
REMARK  273  A    between atoms: _667  and  _670
REMARK  274  A    between atoms: _670  and  _671
REMARK  275  A    between atoms: _674  and  _676
REMARK  276  A    between atoms: _676  and  _677
REMARK  277  A    between atoms: _676  and  _679
REMARK  278  A    between atoms: _679  and  _680
REMARK  279  A    between atoms: _680  and  _681
REMARK  280  A    between atoms: _686  and  _688
REMARK  281  A    between atoms: _688  and  _689
REMARK  282  A    between atoms: _688  and  _691
REMARK  283  A    between atoms: _691  and  _692
REMARK                            x       y       z     vdW  Elec       q    Type
REMARK                         _______ _______ _______ _____ _____    ______ ____
ROOT
ATOM      1  O   HOH     1       2.853 -53.469 -34.228  0.00  0.00    +0.000 OA
ENDROOT
TORSDOF 0
REMARK  Name = ../refined-set-2016/3iae/3iae_pocket.pdb
REMARK  283 active torsions:
REMARK  status: ('A' for Active; 'I' for Inactive)
REMARK    1  A    between atoms: _1  and  _3
REMARK    2  A    between atoms: _3  and  _4
REMARK    3  A    between atoms: _3  and  _6
REMARK    4  A    between atoms: _6  and  _7
REMARK    5  A    between atoms: _10  and  _12
REMARK    6  A    between atoms: _12  and  _13
REMARK    7  A    between atoms: _12  and  _15
REMARK    8  A    between atoms: _15  and  _16
REMARK    9  A    between atoms: _21  and  _22
REMARK   10  A    between atoms: _24  and  _26
REMARK   11  A    between atoms: _26  and  _27
REMARK   12  A    between atoms: _26  and  _29
REMARK   13  A    between atoms: _29  and  _30
REMARK   14  A    between atoms: _34  and  _35
REMARK   15  A    between atoms: _40  and  _42
REMARK   16  A    between atoms: _42  and  _43
REMARK   17  A    between atoms: _42  and  _45
REMARK   18  A    between atoms: _45  and  _46
REMARK   19  A    between atoms: _49  and  _51
REMARK   20  A    between atoms: _51  and  _52
REMARK   21  A    between atoms: _54  and  _56
REMARK   22  A    between atoms: _56  and  _57
REMARK   23  A    between atoms: _60  and  _62
REMARK   24  A    between atoms: _62  and  _63
REMARK   25  A    between atoms: _62  and  _65
REMARK   26  A    between atoms: _65  and  _66
REMARK   27  A    between atoms: _69  and  _71
REMARK   28  A    between atoms: _71  and  _72
REMARK   29  A    between atoms: _71  and  _74
REMARK   30  A    between atoms: _74  and  _75
REMARK   31  A    between atoms: _78  and  _80
REMARK   32  A    between atoms: _80  and  _81
REMARK   33  A    between atoms: _80  and  _83
REMARK   34  A    between atoms: _83  and  _84
REMARK   35  A    between atoms: _89  and  _90
REMARK   36  A    between atoms: _92  and  _94
REMARK   37  A    between atoms: _94  and  _95
REMARK   38  A    between atoms: _94  and  _97
REMARK   39  A    between atoms: _97  and  _98
REMARK   40  A    between atoms: _101  and  _103
REMARK   41  A    between atoms: _103  and  _104
REMARK   42  A    between atoms: _103  and  _106
REMARK   43  A    between atoms: _106  and  _107
REMARK   44  A    between atoms: _117  and  _119
REMARK   45  A    between atoms: _119  and  _120
REMARK   46  A    between atoms: _119  and  _122
REMARK   47  A    between atoms: _122  and  _123
REMARK   48  A    between atoms: _126  and  _128
REMARK   49  A    between atoms: _128  and  _129
REMARK   50  A    between atoms: _128  and  _131
REMARK   51  A    between atoms: _131  and  _132
REMARK   52  A    between atoms: _137  and  _139
REMARK   53  A    between atoms: _139  and  _140
REMARK   54  A    between atoms: _142  and  _144
REMARK   55  A    between atoms: _144  and  _145
REMARK   56  A    between atoms: _144  and  _147
REMARK   57  A    between atoms: _147  and  _148
REMARK   58  A    between atoms: _153  and  _154
REMARK   59  A    between atoms: _156  and  _158
REMARK   60  A    between atoms: _158  and  _159
REMARK   61  A    between atoms: _158  and  _161
REMARK   62  A    between atoms: _161  and  _162
REMARK   63  A    between atoms: _165  and  _167
REMARK   64  A    between atoms: _167  and  _168
REMARK   65  A    between atoms: _170  and  _172
REMARK   66  A    between atoms: _172  and  _173
REMARK   67  A    between atoms: _172  and  _175
REMARK   68  A    between atoms: _175  and  _176
REMARK   69  A    between atoms: _178  and  _180
REMARK   70  A    between atoms: _180  and  _181
REMARK   71  A    between atoms: _180  and  _183
REMARK   72  A    between atoms: _183  and  _184
REMARK   73  A    between atoms: _184  and  _185
REMARK   74  A    between atoms: _187  and  _189
REMARK   75  A    between atoms: _189  and  _190
REMARK   76  A    between atoms: _192  and  _194
REMARK   77  A    between atoms: _194  and  _195
REMARK   78  A    between atoms: _194  and  _197
REMARK   79  A    between atoms: _200  and  _202
REMARK   80  A    between atoms: _202  and  _203
REMARK   81  A    between atoms: _202  and  _205
REMARK   82  A    between atoms: _205  and  _206
REMARK   83  A    between atoms: _209  and  _211
REMARK   84  A    between atoms: _211  and  _212
REMARK   85  A    between atoms: _214  and  _216
REMARK   86  A    between atoms: _216  and  _217
REMARK   87  A    between atoms: _216  and  _219
REMARK   88  A    between atoms: _219  and  _220
REMARK   89  A    between atoms: _220  and  _221
REMARK   90  A    between atoms: _221  and  CA_702
REMARK   91  A    between atoms: _223  and  _225
REMARK   92  A    between atoms: _225  and  _226
REMARK   93  A    between atoms: _228  and  _230
REMARK   94  A    between atoms: _230  and  _231
REMARK   95  A    between atoms: _230  and  _233
REMARK   96  A    between atoms: _233  and  _234
REMARK   97  A    between atoms: _236  and  _238
REMARK   98  A    between atoms: _238  and  _239
REMARK   99  A    between atoms: _238  and  _241
REMARK  100  A    between atoms: _244  and  _246
REMARK  101  A    between atoms: _246  and  _247
REMARK  102  A    between atoms: _249  and  _251
REMARK  103  A    between atoms: _251  and  _252
REMARK  104  A    between atoms: _251  and  _254
REMARK  105  A    between atoms: _254  and  _255
REMARK  106  A    between atoms: _260  and  _261
REMARK  107  A    between atoms: _263  and  _265
REMARK  108  A    between atoms: _265  and  _266
REMARK  109  A    between atoms: _265  and  _268
REMARK  110  A    between atoms: _268  and  _269
REMARK  111  A    between atoms: _272  and  _274
REMARK  112  A    between atoms: _274  and  _275
REMARK  113  A    between atoms: _274  and  _277
REMARK  114  A    between atoms: _275  and  _276
REMARK  115  A    between atoms: _275  and  _281
REMARK  116  A    between atoms: _276  and  CA_702
REMARK  117  A    between atoms: _277  and  _278
REMARK  118  A    between atoms: _278  and  _279
REMARK  119  A    between atoms: _281  and  _283
REMARK  120  A    between atoms: _283  and  _284
REMARK  121  A    between atoms: _283  and  _286
REMARK  122  A    between atoms: _286  and  _287
REMARK  123  A    between atoms: _292  and  _294
REMARK  124  A    between atoms: _294  and  _295
REMARK  125  A    between atoms: _294  and  _297
REMARK  126  A    between atoms: _297  and  _298
REMARK  127  A    between atoms: _303  and  _305
REMARK  128  A    between atoms: _305  and  _306
REMARK  129  A    between atoms: _305  and  _308
REMARK  130  A    between atoms: _308  and  _309
REMARK  131  A    between atoms: _309  and  _310
REMARK  132  A    between atoms: _315  and  _317
REMARK  133  A    between atoms: _317  and  _318
REMARK  134  A    between atoms: _317  and  _320
REMARK  135  A    between atoms: _320  and  _321
REMARK  136  A    between atoms: _323  and  _325
REMARK  137  A    between atoms: _325  and  _326
REMARK  138  A    between atoms: _325  and  _328
REMARK  139  A    between atoms: _328  and  _329
REMARK  140  A    between atoms: _339  and  _341
REMARK  141  A    between atoms: _341  and  _342
REMARK  142  A    between atoms: _344  and  _346
REMARK  143  A    between atoms: _346  and  _347
REMARK  144  A    between atoms: _350  and  _352
REMARK  145  A    between atoms: _352  and  _353
REMARK  146  A    between atoms: _352  and  _355
REMARK  147  A    between atoms: _355  and  _356
REMARK  148  A    between atoms: _359  and  _361
REMARK  149  A    between atoms: _361  and  _362
REMARK  150  A    between atoms: _361  and  _364
REMARK  151  A    between atoms: _364  and  _365
REMARK  152  A    between atoms: _368  and  _370
REMARK  153  A    between atoms: _370  and  _371
REMARK  154  A    between atoms: _370  and  _373
REMARK  155  A    between atoms: _373  and  _374
REMARK  156  A    between atoms: _379  and  _381
REMARK  157  A    between atoms: _381  and  _382
REMARK  158  A    between atoms: _381  and  _384
REMARK  159  A    between atoms: _384  and  _385
REMARK  160  A    between atoms: _391  and  _393
REMARK  161  A    between atoms: _393  and  _394
REMARK  162  A    between atoms: _393  and  _396
REMARK  163  A    between atoms: _396  and  _397
REMARK  164  A    between atoms: _397  and  _398
REMARK  165  A    between atoms: _403  and  _405
REMARK  166  A    between atoms: _405  and  _406
REMARK  167  A    between atoms: _408  and  _410
REMARK  168  A    between atoms: _410  and  _411
REMARK  169  A    between atoms: _410  and  _413
REMARK  170  A    between atoms: _413  and  _414
REMARK  171  A    between atoms: _417  and  _419
REMARK  172  A    between atoms: _419  and  _420
REMARK  173  A    between atoms: _419  and  _422
REMARK  174  A    between atoms: _422  and  _423
REMARK  175  A    between atoms: _426  and  _428
REMARK  176  A    between atoms: _428  and  _429
REMARK  177  A    between atoms: _428  and  _431
REMARK  178  A    between atoms: _431  and  _432
REMARK  179  A    between atoms: _437  and  _438
REMARK  180  A    between atoms: _440  and  _442
REMARK  181  A    between atoms: _442  and  _443
REMARK  182  A    between atoms: _442  and  _445
REMARK  183  A    between atoms: _448  and  _450
REMARK  184  A    between atoms: _450  and  _451
REMARK  185  A    between atoms: _454  and  _456
REMARK  186  A    between atoms: _456  and  _457
REMARK  187  A    between atoms: _456  and  _459
REMARK  188  A    between atoms: _459  and  _460
REMARK  189  A    between atoms: _463  and  _465
REMARK  190  A    between atoms: _465  and  _466
REMARK  191  A    between atoms: _465  and  _468
REMARK  192  A    between atoms: _468  and  _469
REMARK  193  A    between atoms: _469  and  _470
REMARK  194  A    between atoms: _473  and  _475
REMARK  195  A    between atoms: _475  and  _476
REMARK  196  A    between atoms: _475  and  _478
REMARK  197  A    between atoms: _478  and  _479
REMARK  198  A    between atoms: _479  and  _480
REMARK  199  A    between atoms: _483  and  _485
REMARK  200  A    between atoms: _485  and  _486
REMARK  201  A    between atoms: _485  and  _488
REMARK  202  A    between atoms: _488  and  _489
REMARK  203  A    between atoms: _492  and  _494
REMARK  204  A    between atoms: _494  and  _495
REMARK  205  A    between atoms: _494  and  _497
REMARK  206  A    between atoms: _497  and  _498
REMARK  207  A    between atoms: _503  and  _505
REMARK  208  A    between atoms: _505  and  _506
REMARK  209  A    between atoms: _508  and  _510
REMARK  210  A    between atoms: _510  and  _511
REMARK  211  A    between atoms: _510  and  _513
REMARK  212  A    between atoms: _513  and  _514
REMARK  213  A    between atoms: _516  and  _518
REMARK  214  A    between atoms: _518  and  _519
REMARK  215  A    between atoms: _518  and  _521
REMARK  216  A    between atoms: _521  and  _522
REMARK  217  A    between atoms: _527  and  _529
REMARK  218  A    between atoms: _529  and  _530
REMARK  219  A    between atoms: _529  and  _532
REMARK  220  A    between atoms: _532  and  _533
REMARK  221  A    between atoms: _536  and  _538
REMARK  222  A    between atoms: _538  and  _539
REMARK  223  A    between atoms: _538  and  _541
REMARK  224  A    between atoms: _541  and  _542
REMARK  225  A    between atoms: _545  and  _547
REMARK  226  A    between atoms: _547  and  _548
REMARK  227  A    between atoms: _547  and  _550
REMARK  228  A    between atoms: _550  and  _551
REMARK  229  A    between atoms: _551  and  _552
REMARK  230  A    between atoms: _552  and  _553
REMARK  231  A    between atoms: _562  and  _564
REMARK  232  A    between atoms: _564  and  _565
REMARK  233  A    between atoms: _564  and  _567
REMARK  234  A    between atoms: _567  and  _568
REMARK  235  A    between atoms: _573  and  _575
REMARK  236  A    between atoms: _575  and  _576
REMARK  237  A    between atoms: _575  and  _578
REMARK  238  A    between atoms: _578  and  _579
REMARK  239  A    between atoms: _579  and  _580
REMARK  240  A    between atoms: _583  and  _585
REMARK  241  A    between atoms: _585  and  _586
REMARK  242  A    between atoms: _589  and  _591
REMARK  243  A    between atoms: _591  and  _592
REMARK  244  A    between atoms: _591  and  _594
REMARK  245  A    between atoms: _597  and  _599
REMARK  246  A    between atoms: _599  and  _600
REMARK  247  A    between atoms: _599  and  _602
REMARK  248  A    between atoms: _602  and  _603
REMARK  249  A    between atoms: _606  and  _608
REMARK  250  A    between atoms: _608  and  _609
REMARK  251  A    between atoms: _612  and  _614
REMARK  252  A    between atoms: _614  and  _615
REMARK  253  A    between atoms: _617  and  _619
REMARK  254  A    between atoms: _619  and  _620
REMARK  255  A    between atoms: _622  and  _624
REMARK  256  A    between atoms: _624  and  _625
REMARK  257  A    between atoms: _627  and  _629
REMARK  258  A    between atoms: _629  and  _630
REMARK  259  A    between atoms: _629  and  _632
REMARK  260  A    between atoms: _632  and  _633
REMARK  261  A    between atoms: _639  and  _641
REMARK  262  A    between atoms: _641  and  _642
REMARK  263  A    between atoms: _641  and  _644
REMARK  264  A    between atoms: _644  and  _645
REMARK  265  A    between atoms: _648  and  _650
REMARK  266  A    between atoms: _650  and  _651
REMARK  267  A    between atoms: _650  and  _653
REMARK  268  A    between atoms: _653  and  _654
REMARK  269  A    between atoms: _659  and  _661
REMARK  270  A    between atoms: _661  and  _662
REMARK  271  A    between atoms: _665  and  _667
REMARK  272  A    between atoms: _667  and  _668
REMARK  273  A    between atoms: _667  and  _670
REMARK  274  A    between atoms: _670  and  _671
REMARK  275  A    between atoms: _674  and  _676
REMARK  276  A    between atoms: _676  and  _677
REMARK  277  A    between atoms: _676  and  _679
REMARK  278  A    between atoms: _679  and  _680
REMARK  279  A    between atoms: _680  and  _681
REMARK  280  A    between atoms: _686  and  _688
REMARK  281  A    between atoms: _688  and  _689
REMARK  282  A    between atoms: _688  and  _691
REMARK  283  A    between atoms: _691  and  _692
REMARK                            x       y       z     vdW  Elec       q    Type
REMARK                         _______ _______ _______ _____ _____    ______ ____
ROOT
ATOM      1  O   HOH     1       7.099 -57.417 -28.042  0.00  0.00    +0.000 OA
ENDROOT
TORSDOF 0
REMARK  Name = ../refined-set-2016/3iae/3iae_pocket.pdb
REMARK  283 active torsions:
REMARK  status: ('A' for Active; 'I' for Inactive)
REMARK    1  A    between atoms: _1  and  _3
REMARK    2  A    between atoms: _3  and  _4
REMARK    3  A    between atoms: _3  and  _6
REMARK    4  A    between atoms: _6  and  _7
REMARK    5  A    between atoms: _10  and  _12
REMARK    6  A    between atoms: _12  and  _13
REMARK    7  A    between atoms: _12  and  _15
REMARK    8  A    between atoms: _15  and  _16
REMARK    9  A    between atoms: _21  and  _22
REMARK   10  A    between atoms: _24  and  _26
REMARK   11  A    between atoms: _26  and  _27
REMARK   12  A    between atoms: _26  and  _29
REMARK   13  A    between atoms: _29  and  _30
REMARK   14  A    between atoms: _34  and  _35
REMARK   15  A    between atoms: _40  and  _42
REMARK   16  A    between atoms: _42  and  _43
REMARK   17  A    between atoms: _42  and  _45
REMARK   18  A    between atoms: _45  and  _46
REMARK   19  A    between atoms: _49  and  _51
REMARK   20  A    between atoms: _51  and  _52
REMARK   21  A    between atoms: _54  and  _56
REMARK   22  A    between atoms: _56  and  _57
REMARK   23  A    between atoms: _60  and  _62
REMARK   24  A    between atoms: _62  and  _63
REMARK   25  A    between atoms: _62  and  _65
REMARK   26  A    between atoms: _65  and  _66
REMARK   27  A    between atoms: _69  and  _71
REMARK   28  A    between atoms: _71  and  _72
REMARK   29  A    between atoms: _71  and  _74
REMARK   30  A    between atoms: _74  and  _75
REMARK   31  A    between atoms: _78  and  _80
REMARK   32  A    between atoms: _80  and  _81
REMARK   33  A    between atoms: _80  and  _83
REMARK   34  A    between atoms: _83  and  _84
REMARK   35  A    between atoms: _89  and  _90
REMARK   36  A    between atoms: _92  and  _94
REMARK   37  A    between atoms: _94  and  _95
REMARK   38  A    between atoms: _94  and  _97
REMARK   39  A    between atoms: _97  and  _98
REMARK   40  A    between atoms: _101  and  _103
REMARK   41  A    between atoms: _103  and  _104
REMARK   42  A    between atoms: _103  and  _106
REMARK   43  A    between atoms: _106  and  _107
REMARK   44  A    between atoms: _117  and  _119
REMARK   45  A    between atoms: _119  and  _120
REMARK   46  A    between atoms: _119  and  _122
REMARK   47  A    between atoms: _122  and  _123
REMARK   48  A    between atoms: _126  and  _128
REMARK   49  A    between atoms: _128  and  _129
REMARK   50  A    between atoms: _128  and  _131
REMARK   51  A    between atoms: _131  and  _132
REMARK   52  A    between atoms: _137  and  _139
REMARK   53  A    between atoms: _139  and  _140
REMARK   54  A    between atoms: _142  and  _144
REMARK   55  A    between atoms: _144  and  _145
REMARK   56  A    between atoms: _144  and  _147
REMARK   57  A    between atoms: _147  and  _148
REMARK   58  A    between atoms: _153  and  _154
REMARK   59  A    between atoms: _156  and  _158
REMARK   60  A    between atoms: _158  and  _159
REMARK   61  A    between atoms: _158  and  _161
REMARK   62  A    between atoms: _161  and  _162
REMARK   63  A    between atoms: _165  and  _167
REMARK   64  A    between atoms: _167  and  _168
REMARK   65  A    between atoms: _170  and  _172
REMARK   66  A    between atoms: _172  and  _173
REMARK   67  A    between atoms: _172  and  _175
REMARK   68  A    between atoms: _175  and  _176
REMARK   69  A    between atoms: _178  and  _180
REMARK   70  A    between atoms: _180  and  _181
REMARK   71  A    between atoms: _180  and  _183
REMARK   72  A    between atoms: _183  and  _184
REMARK   73  A    between atoms: _184  and  _185
REMARK   74  A    between atoms: _187  and  _189
REMARK   75  A    between atoms: _189  and  _190
REMARK   76  A    between atoms: _192  and  _194
REMARK   77  A    between atoms: _194  and  _195
REMARK   78  A    between atoms: _194  and  _197
REMARK   79  A    between atoms: _200  and  _202
REMARK   80  A    between atoms: _202  and  _203
REMARK   81  A    between atoms: _202  and  _205
REMARK   82  A    between atoms: _205  and  _206
REMARK   83  A    between atoms: _209  and  _211
REMARK   84  A    between atoms: _211  and  _212
REMARK   85  A    between atoms: _214  and  _216
REMARK   86  A    between atoms: _216  and  _217
REMARK   87  A    between atoms: _216  and  _219
REMARK   88  A    between atoms: _219  and  _220
REMARK   89  A    between atoms: _220  and  _221
REMARK   90  A    between atoms: _221  and  CA_702
REMARK   91  A    between atoms: _223  and  _225
REMARK   92  A    between atoms: _225  and  _226
REMARK   93  A    between atoms: _228  and  _230
REMARK   94  A    between atoms: _230  and  _231
REMARK   95  A    between atoms: _230  and  _233
REMARK   96  A    between atoms: _233  and  _234
REMARK   97  A    between atoms: _236  and  _238
REMARK   98  A    between atoms: _238  and  _239
REMARK   99  A    between atoms: _238  and  _241
REMARK  100  A    between atoms: _244  and  _246
REMARK  101  A    between atoms: _246  and  _247
REMARK  102  A    between atoms: _249  and  _251
REMARK  103  A    between atoms: _251  and  _252
REMARK  104  A    between atoms: _251  and  _254
REMARK  105  A    between atoms: _254  and  _255
REMARK  106  A    between atoms: _260  and  _261
REMARK  107  A    between atoms: _263  and  _265
REMARK  108  A    between atoms: _265  and  _266
REMARK  109  A    between atoms: _265  and  _268
REMARK  110  A    between atoms: _268  and  _269
REMARK  111  A    between atoms: _272  and  _274
REMARK  112  A    between atoms: _274  and  _275
REMARK  113  A    between atoms: _274  and  _277
REMARK  114  A    between atoms: _275  and  _276
REMARK  115  A    between atoms: _275  and  _281
REMARK  116  A    between atoms: _276  and  CA_702
REMARK  117  A    between atoms: _277  and  _278
REMARK  118  A    between atoms: _278  and  _279
REMARK  119  A    between atoms: _281  and  _283
REMARK  120  A    between atoms: _283  and  _284
REMARK  121  A    between atoms: _283  and  _286
REMARK  122  A    between atoms: _286  and  _287
REMARK  123  A    between atoms: _292  and  _294
REMARK  124  A    between atoms: _294  and  _295
REMARK  125  A    between atoms: _294  and  _297
REMARK  126  A    between atoms: _297  and  _298
REMARK  127  A    between atoms: _303  and  _305
REMARK  128  A    between atoms: _305  and  _306
REMARK  129  A    between atoms: _305  and  _308
REMARK  130  A    between atoms: _308  and  _309
REMARK  131  A    between atoms: _309  and  _310
REMARK  132  A    between atoms: _315  and  _317
REMARK  133  A    between atoms: _317  and  _318
REMARK  134  A    between atoms: _317  and  _320
REMARK  135  A    between atoms: _320  and  _321
REMARK  136  A    between atoms: _323  and  _325
REMARK  137  A    between atoms: _325  and  _326
REMARK  138  A    between atoms: _325  and  _328
REMARK  139  A    between atoms: _328  and  _329
REMARK  140  A    between atoms: _339  and  _341
REMARK  141  A    between atoms: _341  and  _342
REMARK  142  A    between atoms: _344  and  _346
REMARK  143  A    between atoms: _346  and  _347
REMARK  144  A    between atoms: _350  and  _352
REMARK  145  A    between atoms: _352  and  _353
REMARK  146  A    between atoms: _352  and  _355
REMARK  147  A    between atoms: _355  and  _356
REMARK  148  A    between atoms: _359  and  _361
REMARK  149  A    between atoms: _361  and  _362
REMARK  150  A    between atoms: _361  and  _364
REMARK  151  A    between atoms: _364  and  _365
REMARK  152  A    between atoms: _368  and  _370
REMARK  153  A    between atoms: _370  and  _371
REMARK  154  A    between atoms: _370  and  _373
REMARK  155  A    between atoms: _373  and  _374
REMARK  156  A    between atoms: _379  and  _381
REMARK  157  A    between atoms: _381  and  _382
REMARK  158  A    between atoms: _381  and  _384
REMARK  159  A    between atoms: _384  and  _385
REMARK  160  A    between atoms: _391  and  _393
REMARK  161  A    between atoms: _393  and  _394
REMARK  162  A    between atoms: _393  and  _396
REMARK  163  A    between atoms: _396  and  _397
REMARK  164  A    between atoms: _397  and  _398
REMARK  165  A    between atoms: _403  and  _405
REMARK  166  A    between atoms: _405  and  _406
REMARK  167  A    between atoms: _408  and  _410
REMARK  168  A    between atoms: _410  and  _411
REMARK  169  A    between atoms: _410  and  _413
REMARK  170  A    between atoms: _413  and  _414
REMARK  171  A    between atoms: _417  and  _419
REMARK  172  A    between atoms: _419  and  _420
REMARK  173  A    between atoms: _419  and  _422
REMARK  174  A    between atoms: _422  and  _423
REMARK  175  A    between atoms: _426  and  _428
REMARK  176  A    between atoms: _428  and  _429
REMARK  177  A    between atoms: _428  and  _431
REMARK  178  A    between atoms: _431  and  _432
REMARK  179  A    between atoms: _437  and  _438
REMARK  180  A    between atoms: _440  and  _442
REMARK  181  A    between atoms: _442  and  _443
REMARK  182  A    between atoms: _442  and  _445
REMARK  183  A    between atoms: _448  and  _450
REMARK  184  A    between atoms: _450  and  _451
REMARK  185  A    between atoms: _454  and  _456
REMARK  186  A    between atoms: _456  and  _457
REMARK  187  A    between atoms: _456  and  _459
REMARK  188  A    between atoms: _459  and  _460
REMARK  189  A    between atoms: _463  and  _465
REMARK  190  A    between atoms: _465  and  _466
REMARK  191  A    between atoms: _465  and  _468
REMARK  192  A    between atoms: _468  and  _469
REMARK  193  A    between atoms: _469  and  _470
REMARK  194  A    between atoms: _473  and  _475
REMARK  195  A    between atoms: _475  and  _476
REMARK  196  A    between atoms: _475  and  _478
REMARK  197  A    between atoms: _478  and  _479
REMARK  198  A    between atoms: _479  and  _480
REMARK  199  A    between atoms: _483  and  _485
REMARK  200  A    between atoms: _485  and  _486
REMARK  201  A    between atoms: _485  and  _488
REMARK  202  A    between atoms: _488  and  _489
REMARK  203  A    between atoms: _492  and  _494
REMARK  204  A    between atoms: _494  and  _495
REMARK  205  A    between atoms: _494  and  _497
REMARK  206  A    between atoms: _497  and  _498
REMARK  207  A    between atoms: _503  and  _505
REMARK  208  A    between atoms: _505  and  _506
REMARK  209  A    between atoms: _508  and  _510
REMARK  210  A    between atoms: _510  and  _511
REMARK  211  A    between atoms: _510  and  _513
REMARK  212  A    between atoms: _513  and  _514
REMARK  213  A    between atoms: _516  and  _518
REMARK  214  A    between atoms: _518  and  _519
REMARK  215  A    between atoms: _518  and  _521
REMARK  216  A    between atoms: _521  and  _522
REMARK  217  A    between atoms: _527  and  _529
REMARK  218  A    between atoms: _529  and  _530
REMARK  219  A    between atoms: _529  and  _532
REMARK  220  A    between atoms: _532  and  _533
REMARK  221  A    between atoms: _536  and  _538
REMARK  222  A    between atoms: _538  and  _539
REMARK  223  A    between atoms: _538  and  _541
REMARK  224  A    between atoms: _541  and  _542
REMARK  225  A    between atoms: _545  and  _547
REMARK  226  A    between atoms: _547  and  _548
REMARK  227  A    between atoms: _547  and  _550
REMARK  228  A    between atoms: _550  and  _551
REMARK  229  A    between atoms: _551  and  _552
REMARK  230  A    between atoms: _552  and  _553
REMARK  231  A    between atoms: _562  and  _564
REMARK  232  A    between atoms: _564  and  _565
REMARK  233  A    between atoms: _564  and  _567
REMARK  234  A    between atoms: _567  and  _568
REMARK  235  A    between atoms: _573  and  _575
REMARK  236  A    between atoms: _575  and  _576
REMARK  237  A    between atoms: _575  and  _578
REMARK  238  A    between atoms: _578  and  _579
REMARK  239  A    between atoms: _579  and  _580
REMARK  240  A    between atoms: _583  and  _585
REMARK  241  A    between atoms: _585  and  _586
REMARK  242  A    between atoms: _589  and  _591
REMARK  243  A    between atoms: _591  and  _592
REMARK  244  A    between atoms: _591  and  _594
REMARK  245  A    between atoms: _597  and  _599
REMARK  246  A    between atoms: _599  and  _600
REMARK  247  A    between atoms: _599  and  _602
REMARK  248  A    between atoms: _602  and  _603
REMARK  249  A    between atoms: _606  and  _608
REMARK  250  A    between atoms: _608  and  _609
REMARK  251  A    between atoms: _612  and  _614
REMARK  252  A    between atoms: _614  and  _615
REMARK  253  A    between atoms: _617  and  _619
REMARK  254  A    between atoms: _619  and  _620
REMARK  255  A    between atoms: _622  and  _624
REMARK  256  A    between atoms: _624  and  _625
REMARK  257  A    between atoms: _627  and  _629
REMARK  258  A    between atoms: _629  and  _630
REMARK  259  A    between atoms: _629  and  _632
REMARK  260  A    between atoms: _632  and  _633
REMARK  261  A    between atoms: _639  and  _641
REMARK  262  A    between atoms: _641  and  _642
REMARK  263  A    between atoms: _641  and  _644
REMARK  264  A    between atoms: _644  and  _645
REMARK  265  A    between atoms: _648  and  _650
REMARK  266  A    between atoms: _650  and  _651
REMARK  267  A    between atoms: _650  and  _653
REMARK  268  A    between atoms: _653  and  _654
REMARK  269  A    between atoms: _659  and  _661
REMARK  270  A    between atoms: _661  and  _662
REMARK  271  A    between atoms: _665  and  _667
REMARK  272  A    between atoms: _667  and  _668
REMARK  273  A    between atoms: _667  and  _670
REMARK  274  A    between atoms: _670  and  _671
REMARK  275  A    between atoms: _674  and  _676
REMARK  276  A    between atoms: _676  and  _677
REMARK  277  A    between atoms: _676  and  _679
REMARK  278  A    between atoms: _679  and  _680
REMARK  279  A    between atoms: _680  and  _681
REMARK  280  A    between atoms: _686  and  _688
REMARK  281  A    between atoms: _688  and  _689
REMARK  282  A    between atoms: _688  and  _691
REMARK  283  A    between atoms: _691  and  _692
REMARK                            x       y       z     vdW  Elec       q    Type
REMARK                         _______ _______ _______ _____ _____    ______ ____
ROOT
ATOM      1  O   HOH     1       4.540 -52.422 -20.002  0.00  0.00    +0.000 OA
ENDROOT
TORSDOF 0
REMARK  Name = ../refined-set-2016/3iae/3iae_pocket.pdb
REMARK  283 active torsions:
REMARK  status: ('A' for Active; 'I' for Inactive)
REMARK    1  A    between atoms: _1  and  _3
REMARK    2  A    between atoms: _3  and  _4
REMARK    3  A    between atoms: _3  and  _6
REMARK    4  A    between atoms: _6  and  _7
REMARK    5  A    between atoms: _10  and  _12
REMARK    6  A    between atoms: _12  and  _13
REMARK    7  A    between atoms: _12  and  _15
REMARK    8  A    between atoms: _15  and  _16
REMARK    9  A    between atoms: _21  and  _22
REMARK   10  A    between atoms: _24  and  _26
REMARK   11  A    between atoms: _26  and  _27
REMARK   12  A    between atoms: _26  and  _29
REMARK   13  A    between atoms: _29  and  _30
REMARK   14  A    between atoms: _34  and  _35
REMARK   15  A    between atoms: _40  and  _42
REMARK   16  A    between atoms: _42  and  _43
REMARK   17  A    between atoms: _42  and  _45
REMARK   18  A    between atoms: _45  and  _46
REMARK   19  A    between atoms: _49  and  _51
REMARK   20  A    between atoms: _51  and  _52
REMARK   21  A    between atoms: _54  and  _56
REMARK   22  A    between atoms: _56  and  _57
REMARK   23  A    between atoms: _60  and  _62
REMARK   24  A    between atoms: _62  and  _63
REMARK   25  A    between atoms: _62  and  _65
REMARK   26  A    between atoms: _65  and  _66
REMARK   27  A    between atoms: _69  and  _71
REMARK   28  A    between atoms: _71  and  _72
REMARK   29  A    between atoms: _71  and  _74
REMARK   30  A    between atoms: _74  and  _75
REMARK   31  A    between atoms: _78  and  _80
REMARK   32  A    between atoms: _80  and  _81
REMARK   33  A    between atoms: _80  and  _83
REMARK   34  A    between atoms: _83  and  _84
REMARK   35  A    between atoms: _89  and  _90
REMARK   36  A    between atoms: _92  and  _94
REMARK   37  A    between atoms: _94  and  _95
REMARK   38  A    between atoms: _94  and  _97
REMARK   39  A    between atoms: _97  and  _98
REMARK   40  A    between atoms: _101  and  _103
REMARK   41  A    between atoms: _103  and  _104
REMARK   42  A    between atoms: _103  and  _106
REMARK   43  A    between atoms: _106  and  _107
REMARK   44  A    between atoms: _117  and  _119
REMARK   45  A    between atoms: _119  and  _120
REMARK   46  A    between atoms: _119  and  _122
REMARK   47  A    between atoms: _122  and  _123
REMARK   48  A    between atoms: _126  and  _128
REMARK   49  A    between atoms: _128  and  _129
REMARK   50  A    between atoms: _128  and  _131
REMARK   51  A    between atoms: _131  and  _132
REMARK   52  A    between atoms: _137  and  _139
REMARK   53  A    between atoms: _139  and  _140
REMARK   54  A    between atoms: _142  and  _144
REMARK   55  A    between atoms: _144  and  _145
REMARK   56  A    between atoms: _144  and  _147
REMARK   57  A    between atoms: _147  and  _148
REMARK   58  A    between atoms: _153  and  _154
REMARK   59  A    between atoms: _156  and  _158
REMARK   60  A    between atoms: _158  and  _159
REMARK   61  A    between atoms: _158  and  _161
REMARK   62  A    between atoms: _161  and  _162
REMARK   63  A    between atoms: _165  and  _167
REMARK   64  A    between atoms: _167  and  _168
REMARK   65  A    between atoms: _170  and  _172
REMARK   66  A    between atoms: _172  and  _173
REMARK   67  A    between atoms: _172  and  _175
REMARK   68  A    between atoms: _175  and  _176
REMARK   69  A    between atoms: _178  and  _180
REMARK   70  A    between atoms: _180  and  _181
REMARK   71  A    between atoms: _180  and  _183
REMARK   72  A    between atoms: _183  and  _184
REMARK   73  A    between atoms: _184  and  _185
REMARK   74  A    between atoms: _187  and  _189
REMARK   75  A    between atoms: _189  and  _190
REMARK   76  A    between atoms: _192  and  _194
REMARK   77  A    between atoms: _194  and  _195
REMARK   78  A    between atoms: _194  and  _197
REMARK   79  A    between atoms: _200  and  _202
REMARK   80  A    between atoms: _202  and  _203
REMARK   81  A    between atoms: _202  and  _205
REMARK   82  A    between atoms: _205  and  _206
REMARK   83  A    between atoms: _209  and  _211
REMARK   84  A    between atoms: _211  and  _212
REMARK   85  A    between atoms: _214  and  _216
REMARK   86  A    between atoms: _216  and  _217
REMARK   87  A    between atoms: _216  and  _219
REMARK   88  A    between atoms: _219  and  _220
REMARK   89  A    between atoms: _220  and  _221
REMARK   90  A    between atoms: _221  and  CA_702
REMARK   91  A    between atoms: _223  and  _225
REMARK   92  A    between atoms: _225  and  _226
REMARK   93  A    between atoms: _228  and  _230
REMARK   94  A    between atoms: _230  and  _231
REMARK   95  A    between atoms: _230  and  _233
REMARK   96  A    between atoms: _233  and  _234
REMARK   97  A    between atoms: _236  and  _238
REMARK   98  A    between atoms: _238  and  _239
REMARK   99  A    between atoms: _238  and  _241
REMARK  100  A    between atoms: _244  and  _246
REMARK  101  A    between atoms: _246  and  _247
REMARK  102  A    between atoms: _249  and  _251
REMARK  103  A    between atoms: _251  and  _252
REMARK  104  A    between atoms: _251  and  _254
REMARK  105  A    between atoms: _254  and  _255
REMARK  106  A    between atoms: _260  and  _261
REMARK  107  A    between atoms: _263  and  _265
REMARK  108  A    between atoms: _265  and  _266
REMARK  109  A    between atoms: _265  and  _268
REMARK  110  A    between atoms: _268  and  _269
REMARK  111  A    between atoms: _272  and  _274
REMARK  112  A    between atoms: _274  and  _275
REMARK  113  A    between atoms: _274  and  _277
REMARK  114  A    between atoms: _275  and  _276
REMARK  115  A    between atoms: _275  and  _281
REMARK  116  A    between atoms: _276  and  CA_702
REMARK  117  A    between atoms: _277  and  _278
REMARK  118  A    between atoms: _278  and  _279
REMARK  119  A    between atoms: _281  and  _283
REMARK  120  A    between atoms: _283  and  _284
REMARK  121  A    between atoms: _283  and  _286
REMARK  122  A    between atoms: _286  and  _287
REMARK  123  A    between atoms: _292  and  _294
REMARK  124  A    between atoms: _294  and  _295
REMARK  125  A    between atoms: _294  and  _297
REMARK  126  A    between atoms: _297  and  _298
REMARK  127  A    between atoms: _303  and  _305
REMARK  128  A    between atoms: _305  and  _306
REMARK  129  A    between atoms: _305  and  _308
REMARK  130  A    between atoms: _308  and  _309
REMARK  131  A    between atoms: _309  and  _310
REMARK  132  A    between atoms: _315  and  _317
REMARK  133  A    between atoms: _317  and  _318
REMARK  134  A    between atoms: _317  and  _320
REMARK  135  A    between atoms: _320  and  _321
REMARK  136  A    between atoms: _323  and  _325
REMARK  137  A    between atoms: _325  and  _326
REMARK  138  A    between atoms: _325  and  _328
REMARK  139  A    between atoms: _328  and  _329
REMARK  140  A    between atoms: _339  and  _341
REMARK  141  A    between atoms: _341  and  _342
REMARK  142  A    between atoms: _344  and  _346
REMARK  143  A    between atoms: _346  and  _347
REMARK  144  A    between atoms: _350  and  _352
REMARK  145  A    between atoms: _352  and  _353
REMARK  146  A    between atoms: _352  and  _355
REMARK  147  A    between atoms: _355  and  _356
REMARK  148  A    between atoms: _359  and  _361
REMARK  149  A    between atoms: _361  and  _362
REMARK  150  A    between atoms: _361  and  _364
REMARK  151  A    between atoms: _364  and  _365
REMARK  152  A    between atoms: _368  and  _370
REMARK  153  A    between atoms: _370  and  _371
REMARK  154  A    between atoms: _370  and  _373
REMARK  155  A    between atoms: _373  and  _374
REMARK  156  A    between atoms: _379  and  _381
REMARK  157  A    between atoms: _381  and  _382
REMARK  158  A    between atoms: _381  and  _384
REMARK  159  A    between atoms: _384  and  _385
REMARK  160  A    between atoms: _391  and  _393
REMARK  161  A    between atoms: _393  and  _394
REMARK  162  A    between atoms: _393  and  _396
REMARK  163  A    between atoms: _396  and  _397
REMARK  164  A    between atoms: _397  and  _398
REMARK  165  A    between atoms: _403  and  _405
REMARK  166  A    between atoms: _405  and  _406
REMARK  167  A    between atoms: _408  and  _410
REMARK  168  A    between atoms: _410  and  _411
REMARK  169  A    between atoms: _410  and  _413
REMARK  170  A    between atoms: _413  and  _414
REMARK  171  A    between atoms: _417  and  _419
REMARK  172  A    between atoms: _419  and  _420
REMARK  173  A    between atoms: _419  and  _422
REMARK  174  A    between atoms: _422  and  _423
REMARK  175  A    between atoms: _426  and  _428
REMARK  176  A    between atoms: _428  and  _429
REMARK  177  A    between atoms: _428  and  _431
REMARK  178  A    between atoms: _431  and  _432
REMARK  179  A    between atoms: _437  and  _438
REMARK  180  A    between atoms: _440  and  _442
REMARK  181  A    between atoms: _442  and  _443
REMARK  182  A    between atoms: _442  and  _445
REMARK  183  A    between atoms: _448  and  _450
REMARK  184  A    between atoms: _450  and  _451
REMARK  185  A    between atoms: _454  and  _456
REMARK  186  A    between atoms: _456  and  _457
REMARK  187  A    between atoms: _456  and  _459
REMARK  188  A    between atoms: _459  and  _460
REMARK  189  A    between atoms: _463  and  _465
REMARK  190  A    between atoms: _465  and  _466
REMARK  191  A    between atoms: _465  and  _468
REMARK  192  A    between atoms: _468  and  _469
REMARK  193  A    between atoms: _469  and  _470
REMARK  194  A    between atoms: _473  and  _475
REMARK  195  A    between atoms: _475  and  _476
REMARK  196  A    between atoms: _475  and  _478
REMARK  197  A    between atoms: _478  and  _479
REMARK  198  A    between atoms: _479  and  _480
REMARK  199  A    between atoms: _483  and  _485
REMARK  200  A    between atoms: _485  and  _486
REMARK  201  A    between atoms: _485  and  _488
REMARK  202  A    between atoms: _488  and  _489
REMARK  203  A    between atoms: _492  and  _494
REMARK  204  A    between atoms: _494  and  _495
REMARK  205  A    between atoms: _494  and  _497
REMARK  206  A    between atoms: _497  and  _498
REMARK  207  A    between atoms: _503  and  _505
REMARK  208  A    between atoms: _505  and  _506
REMARK  209  A    between atoms: _508  and  _510
REMARK  210  A    between atoms: _510  and  _511
REMARK  211  A    between atoms: _510  and  _513
REMARK  212  A    between atoms: _513  and  _514
REMARK  213  A    between atoms: _516  and  _518
REMARK  214  A    between atoms: _518  and  _519
REMARK  215  A    between atoms: _518  and  _521
REMARK  216  A    between atoms: _521  and  _522
REMARK  217  A    between atoms: _527  and  _529
REMARK  218  A    between atoms: _529  and  _530
REMARK  219  A    between atoms: _529  and  _532
REMARK  220  A    between atoms: _532  and  _533
REMARK  221  A    between atoms: _536  and  _538
REMARK  222  A    between atoms: _538  and  _539
REMARK  223  A    between atoms: _538  and  _541
REMARK  224  A    between atoms: _541  and  _542
REMARK  225  A    between atoms: _545  and  _547
REMARK  226  A    between atoms: _547  and  _548
REMARK  227  A    between atoms: _547  and  _550
REMARK  228  A    between atoms: _550  and  _551
REMARK  229  A    between atoms: _551  and  _552
REMARK  230  A    between atoms: _552  and  _553
REMARK  231  A    between atoms: _562  and  _564
REMARK  232  A    between atoms: _564  and  _565
REMARK  233  A    between atoms: _564  and  _567
REMARK  234  A    between atoms: _567  and  _568
REMARK  235  A    between atoms: _573  and  _575
REMARK  236  A    between atoms: _575  and  _576
REMARK  237  A    between atoms: _575  and  _578
REMARK  238  A    between atoms: _578  and  _579
REMARK  239  A    between atoms: _579  and  _580
REMARK  240  A    between atoms: _583  and  _585
REMARK  241  A    between atoms: _585  and  _586
REMARK  242  A    between atoms: _589  and  _591
REMARK  243  A    between atoms: _591  and  _592
REMARK  244  A    between atoms: _591  and  _594
REMARK  245  A    between atoms: _597  and  _599
REMARK  246  A    between atoms: _599  and  _600
REMARK  247  A    between atoms: _599  and  _602
REMARK  248  A    between atoms: _602  and  _603
REMARK  249  A    between atoms: _606  and  _608
REMARK  250  A    between atoms: _608  and  _609
REMARK  251  A    between atoms: _612  and  _614
REMARK  252  A    between atoms: _614  and  _615
REMARK  253  A    between atoms: _617  and  _619
REMARK  254  A    between atoms: _619  and  _620
REMARK  255  A    between atoms: _622  and  _624
REMARK  256  A    between atoms: _624  and  _625
REMARK  257  A    between atoms: _627  and  _629
REMARK  258  A    between atoms: _629  and  _630
REMARK  259  A    between atoms: _629  and  _632
REMARK  260  A    between atoms: _632  and  _633
REMARK  261  A    between atoms: _639  and  _641
REMARK  262  A    between atoms: _641  and  _642
REMARK  263  A    between atoms: _641  and  _644
REMARK  264  A    between atoms: _644  and  _645
REMARK  265  A    between atoms: _648  and  _650
REMARK  266  A    between atoms: _650  and  _651
REMARK  267  A    between atoms: _650  and  _653
REMARK  268  A    between atoms: _653  and  _654
REMARK  269  A    between atoms: _659  and  _661
REMARK  270  A    between atoms: _661  and  _662
REMARK  271  A    between atoms: _665  and  _667
REMARK  272  A    between atoms: _667  and  _668
REMARK  273  A    between atoms: _667  and  _670
REMARK  274  A    between atoms: _670  and  _671
REMARK  275  A    between atoms: _674  and  _676
REMARK  276  A    between atoms: _676  and  _677
REMARK  277  A    between atoms: _676  and  _679
REMARK  278  A    between atoms: _679  and  _680
REMARK  279  A    between atoms: _680  and  _681
REMARK  280  A    between atoms: _686  and  _688
REMARK  281  A    between atoms: _688  and  _689
REMARK  282  A    between atoms: _688  and  _691
REMARK  283  A    between atoms: _691  and  _692
REMARK                            x       y       z     vdW  Elec       q    Type
REMARK                         _______ _______ _______ _____ _____    ______ ____
ROOT
ATOM      1  O   HOH     1       3.974 -45.030 -35.623  0.00  0.00    +0.000 OA
ENDROOT
TORSDOF 0
REMARK  Name = ../refined-set-2016/3iae/3iae_pocket.pdb
REMARK  283 active torsions:
REMARK  status: ('A' for Active; 'I' for Inactive)
REMARK    1  A    between atoms: _1  and  _3
REMARK    2  A    between atoms: _3  and  _4
REMARK    3  A    between atoms: _3  and  _6
REMARK    4  A    between atoms: _6  and  _7
REMARK    5  A    between atoms: _10  and  _12
REMARK    6  A    between atoms: _12  and  _13
REMARK    7  A    between atoms: _12  and  _15
REMARK    8  A    between atoms: _15  and  _16
REMARK    9  A    between atoms: _21  and  _22
REMARK   10  A    between atoms: _24  and  _26
REMARK   11  A    between atoms: _26  and  _27
REMARK   12  A    between atoms: _26  and  _29
REMARK   13  A    between atoms: _29  and  _30
REMARK   14  A    between atoms: _34  and  _35
REMARK   15  A    between atoms: _40  and  _42
REMARK   16  A    between atoms: _42  and  _43
REMARK   17  A    between atoms: _42  and  _45
REMARK   18  A    between atoms: _45  and  _46
REMARK   19  A    between atoms: _49  and  _51
REMARK   20  A    between atoms: _51  and  _52
REMARK   21  A    between atoms: _54  and  _56
REMARK   22  A    between atoms: _56  and  _57
REMARK   23  A    between atoms: _60  and  _62
REMARK   24  A    between atoms: _62  and  _63
REMARK   25  A    between atoms: _62  and  _65
REMARK   26  A    between atoms: _65  and  _66
REMARK   27  A    between atoms: _69  and  _71
REMARK   28  A    between atoms: _71  and  _72
REMARK   29  A    between atoms: _71  and  _74
REMARK   30  A    between atoms: _74  and  _75
REMARK   31  A    between atoms: _78  and  _80
REMARK   32  A    between atoms: _80  and  _81
REMARK   33  A    between atoms: _80  and  _83
REMARK   34  A    between atoms: _83  and  _84
REMARK   35  A    between atoms: _89  and  _90
REMARK   36  A    between atoms: _92  and  _94
REMARK   37  A    between atoms: _94  and  _95
REMARK   38  A    between atoms: _94  and  _97
REMARK   39  A    between atoms: _97  and  _98
REMARK   40  A    between atoms: _101  and  _103
REMARK   41  A    between atoms: _103  and  _104
REMARK   42  A    between atoms: _103  and  _106
REMARK   43  A    between atoms: _106  and  _107
REMARK   44  A    between atoms: _117  and  _119
REMARK   45  A    between atoms: _119  and  _120
REMARK   46  A    between atoms: _119  and  _122
REMARK   47  A    between atoms: _122  and  _123
REMARK   48  A    between atoms: _126  and  _128
REMARK   49  A    between atoms: _128  and  _129
REMARK   50  A    between atoms: _128  and  _131
REMARK   51  A    between atoms: _131  and  _132
REMARK   52  A    between atoms: _137  and  _139
REMARK   53  A    between atoms: _139  and  _140
REMARK   54  A    between atoms: _142  and  _144
REMARK   55  A    between atoms: _144  and  _145
REMARK   56  A    between atoms: _144  and  _147
REMARK   57  A    between atoms: _147  and  _148
REMARK   58  A    between atoms: _153  and  _154
REMARK   59  A    between atoms: _156  and  _158
REMARK   60  A    between atoms: _158  and  _159
REMARK   61  A    between atoms: _158  and  _161
REMARK   62  A    between atoms: _161  and  _162
REMARK   63  A    between atoms: _165  and  _167
REMARK   64  A    between atoms: _167  and  _168
REMARK   65  A    between atoms: _170  and  _172
REMARK   66  A    between atoms: _172  and  _173
REMARK   67  A    between atoms: _172  and  _175
REMARK   68  A    between atoms: _175  and  _176
REMARK   69  A    between atoms: _178  and  _180
REMARK   70  A    between atoms: _180  and  _181
REMARK   71  A    between atoms: _180  and  _183
REMARK   72  A    between atoms: _183  and  _184
REMARK   73  A    between atoms: _184  and  _185
REMARK   74  A    between atoms: _187  and  _189
REMARK   75  A    between atoms: _189  and  _190
REMARK   76  A    between atoms: _192  and  _194
REMARK   77  A    between atoms: _194  and  _195
REMARK   78  A    between atoms: _194  and  _197
REMARK   79  A    between atoms: _200  and  _202
REMARK   80  A    between atoms: _202  and  _203
REMARK   81  A    between atoms: _202  and  _205
REMARK   82  A    between atoms: _205  and  _206
REMARK   83  A    between atoms: _209  and  _211
REMARK   84  A    between atoms: _211  and  _212
REMARK   85  A    between atoms: _214  and  _216
REMARK   86  A    between atoms: _216  and  _217
REMARK   87  A    between atoms: _216  and  _219
REMARK   88  A    between atoms: _219  and  _220
REMARK   89  A    between atoms: _220  and  _221
REMARK   90  A    between atoms: _221  and  CA_702
REMARK   91  A    between atoms: _223  and  _225
REMARK   92  A    between atoms: _225  and  _226
REMARK   93  A    between atoms: _228  and  _230
REMARK   94  A    between atoms: _230  and  _231
REMARK   95  A    between atoms: _230  and  _233
REMARK   96  A    between atoms: _233  and  _234
REMARK   97  A    between atoms: _236  and  _238
REMARK   98  A    between atoms: _238  and  _239
REMARK   99  A    between atoms: _238  and  _241
REMARK  100  A    between atoms: _244  and  _246
REMARK  101  A    between atoms: _246  and  _247
REMARK  102  A    between atoms: _249  and  _251
REMARK  103  A    between atoms: _251  and  _252
REMARK  104  A    between atoms: _251  and  _254
REMARK  105  A    between atoms: _254  and  _255
REMARK  106  A    between atoms: _260  and  _261
REMARK  107  A    between atoms: _263  and  _265
REMARK  108  A    between atoms: _265  and  _266
REMARK  109  A    between atoms: _265  and  _268
REMARK  110  A    between atoms: _268  and  _269
REMARK  111  A    between atoms: _272  and  _274
REMARK  112  A    between atoms: _274  and  _275
REMARK  113  A    between atoms: _274  and  _277
REMARK  114  A    between atoms: _275  and  _276
REMARK  115  A    between atoms: _275  and  _281
REMARK  116  A    between atoms: _276  and  CA_702
REMARK  117  A    between atoms: _277  and  _278
REMARK  118  A    between atoms: _278  and  _279
REMARK  119  A    between atoms: _281  and  _283
REMARK  120  A    between atoms: _283  and  _284
REMARK  121  A    between atoms: _283  and  _286
REMARK  122  A    between atoms: _286  and  _287
REMARK  123  A    between atoms: _292  and  _294
REMARK  124  A    between atoms: _294  and  _295
REMARK  125  A    between atoms: _294  and  _297
REMARK  126  A    between atoms: _297  and  _298
REMARK  127  A    between atoms: _303  and  _305
REMARK  128  A    between atoms: _305  and  _306
REMARK  129  A    between atoms: _305  and  _308
REMARK  130  A    between atoms: _308  and  _309
REMARK  131  A    between atoms: _309  and  _310
REMARK  132  A    between atoms: _315  and  _317
REMARK  133  A    between atoms: _317  and  _318
REMARK  134  A    between atoms: _317  and  _320
REMARK  135  A    between atoms: _320  and  _321
REMARK  136  A    between atoms: _323  and  _325
REMARK  137  A    between atoms: _325  and  _326
REMARK  138  A    between atoms: _325  and  _328
REMARK  139  A    between atoms: _328  and  _329
REMARK  140  A    between atoms: _339  and  _341
REMARK  141  A    between atoms: _341  and  _342
REMARK  142  A    between atoms: _344  and  _346
REMARK  143  A    between atoms: _346  and  _347
REMARK  144  A    between atoms: _350  and  _352
REMARK  145  A    between atoms: _352  and  _353
REMARK  146  A    between atoms: _352  and  _355
REMARK  147  A    between atoms: _355  and  _356
REMARK  148  A    between atoms: _359  and  _361
REMARK  149  A    between atoms: _361  and  _362
REMARK  150  A    between atoms: _361  and  _364
REMARK  151  A    between atoms: _364  and  _365
REMARK  152  A    between atoms: _368  and  _370
REMARK  153  A    between atoms: _370  and  _371
REMARK  154  A    between atoms: _370  and  _373
REMARK  155  A    between atoms: _373  and  _374
REMARK  156  A    between atoms: _379  and  _381
REMARK  157  A    between atoms: _381  and  _382
REMARK  158  A    between atoms: _381  and  _384
REMARK  159  A    between atoms: _384  and  _385
REMARK  160  A    between atoms: _391  and  _393
REMARK  161  A    between atoms: _393  and  _394
REMARK  162  A    between atoms: _393  and  _396
REMARK  163  A    between atoms: _396  and  _397
REMARK  164  A    between atoms: _397  and  _398
REMARK  165  A    between atoms: _403  and  _405
REMARK  166  A    between atoms: _405  and  _406
REMARK  167  A    between atoms: _408  and  _410
REMARK  168  A    between atoms: _410  and  _411
REMARK  169  A    between atoms: _410  and  _413
REMARK  170  A    between atoms: _413  and  _414
REMARK  171  A    between atoms: _417  and  _419
REMARK  172  A    between atoms: _419  and  _420
REMARK  173  A    between atoms: _419  and  _422
REMARK  174  A    between atoms: _422  and  _423
REMARK  175  A    between atoms: _426  and  _428
REMARK  176  A    between atoms: _428  and  _429
REMARK  177  A    between atoms: _428  and  _431
REMARK  178  A    between atoms: _431  and  _432
REMARK  179  A    between atoms: _437  and  _438
REMARK  180  A    between atoms: _440  and  _442
REMARK  181  A    between atoms: _442  and  _443
REMARK  182  A    between atoms: _442  and  _445
REMARK  183  A    between atoms: _448  and  _450
REMARK  184  A    between atoms: _450  and  _451
REMARK  185  A    between atoms: _454  and  _456
REMARK  186  A    between atoms: _456  and  _457
REMARK  187  A    between atoms: _456  and  _459
REMARK  188  A    between atoms: _459  and  _460
REMARK  189  A    between atoms: _463  and  _465
REMARK  190  A    between atoms: _465  and  _466
REMARK  191  A    between atoms: _465  and  _468
REMARK  192  A    between atoms: _468  and  _469
REMARK  193  A    between atoms: _469  and  _470
REMARK  194  A    between atoms: _473  and  _475
REMARK  195  A    between atoms: _475  and  _476
REMARK  196  A    between atoms: _475  and  _478
REMARK  197  A    between atoms: _478  and  _479
REMARK  198  A    between atoms: _479  and  _480
REMARK  199  A    between atoms: _483  and  _485
REMARK  200  A    between atoms: _485  and  _486
REMARK  201  A    between atoms: _485  and  _488
REMARK  202  A    between atoms: _488  and  _489
REMARK  203  A    between atoms: _492  and  _494
REMARK  204  A    between atoms: _494  and  _495
REMARK  205  A    between atoms: _494  and  _497
REMARK  206  A    between atoms: _497  and  _498
REMARK  207  A    between atoms: _503  and  _505
REMARK  208  A    between atoms: _505  and  _506
REMARK  209  A    between atoms: _508  and  _510
REMARK  210  A    between atoms: _510  and  _511
REMARK  211  A    between atoms: _510  and  _513
REMARK  212  A    between atoms: _513  and  _514
REMARK  213  A    between atoms: _516  and  _518
REMARK  214  A    between atoms: _518  and  _519
REMARK  215  A    between atoms: _518  and  _521
REMARK  216  A    between atoms: _521  and  _522
REMARK  217  A    between atoms: _527  and  _529
REMARK  218  A    between atoms: _529  and  _530
REMARK  219  A    between atoms: _529  and  _532
REMARK  220  A    between atoms: _532  and  _533
REMARK  221  A    between atoms: _536  and  _538
REMARK  222  A    between atoms: _538  and  _539
REMARK  223  A    between atoms: _538  and  _541
REMARK  224  A    between atoms: _541  and  _542
REMARK  225  A    between atoms: _545  and  _547
REMARK  226  A    between atoms: _547  and  _548
REMARK  227  A    between atoms: _547  and  _550
REMARK  228  A    between atoms: _550  and  _551
REMARK  229  A    between atoms: _551  and  _552
REMARK  230  A    between atoms: _552  and  _553
REMARK  231  A    between atoms: _562  and  _564
REMARK  232  A    between atoms: _564  and  _565
REMARK  233  A    between atoms: _564  and  _567
REMARK  234  A    between atoms: _567  and  _568
REMARK  235  A    between atoms: _573  and  _575
REMARK  236  A    between atoms: _575  and  _576
REMARK  237  A    between atoms: _575  and  _578
REMARK  238  A    between atoms: _578  and  _579
REMARK  239  A    between atoms: _579  and  _580
REMARK  240  A    between atoms: _583  and  _585
REMARK  241  A    between atoms: _585  and  _586
REMARK  242  A    between atoms: _589  and  _591
REMARK  243  A    between atoms: _591  and  _592
REMARK  244  A    between atoms: _591  and  _594
REMARK  245  A    between atoms: _597  and  _599
REMARK  246  A    between atoms: _599  and  _600
REMARK  247  A    between atoms: _599  and  _602
REMARK  248  A    between atoms: _602  and  _603
REMARK  249  A    between atoms: _606  and  _608
REMARK  250  A    between atoms: _608  and  _609
REMARK  251  A    between atoms: _612  and  _614
REMARK  252  A    between atoms: _614  and  _615
REMARK  253  A    between atoms: _617  and  _619
REMARK  254  A    between atoms: _619  and  _620
REMARK  255  A    between atoms: _622  and  _624
REMARK  256  A    between atoms: _624  and  _625
REMARK  257  A    between atoms: _627  and  _629
REMARK  258  A    between atoms: _629  and  _630
REMARK  259  A    between atoms: _629  and  _632
REMARK  260  A    between atoms: _632  and  _633
REMARK  261  A    between atoms: _639  and  _641
REMARK  262  A    between atoms: _641  and  _642
REMARK  263  A    between atoms: _641  and  _644
REMARK  264  A    between atoms: _644  and  _645
REMARK  265  A    between atoms: _648  and  _650
REMARK  266  A    between atoms: _650  and  _651
REMARK  267  A    between atoms: _650  and  _653
REMARK  268  A    between atoms: _653  and  _654
REMARK  269  A    between atoms: _659  and  _661
REMARK  270  A    between atoms: _661  and  _662
REMARK  271  A    between atoms: _665  and  _667
REMARK  272  A    between atoms: _667  and  _668
REMARK  273  A    between atoms: _667  and  _670
REMARK  274  A    between atoms: _670  and  _671
REMARK  275  A    between atoms: _674  and  _676
REMARK  276  A    between atoms: _676  and  _677
REMARK  277  A    between atoms: _676  and  _679
REMARK  278  A    between atoms: _679  and  _680
REMARK  279  A    between atoms: _680  and  _681
REMARK  280  A    between atoms: _686  and  _688
REMARK  281  A    between atoms: _688  and  _689
REMARK  282  A    between atoms: _688  and  _691
REMARK  283  A    between atoms: _691  and  _692
REMARK                            x       y       z     vdW  Elec       q    Type
REMARK                         _______ _______ _______ _____ _____    ______ ____
ROOT
ATOM      1  O   HOH     1       6.917 -47.567 -23.187  0.00  0.00    +0.000 OA
ENDROOT
TORSDOF 0
REMARK  Name = ../refined-set-2016/3iae/3iae_pocket.pdb
REMARK  283 active torsions:
REMARK  status: ('A' for Active; 'I' for Inactive)
REMARK    1  A    between atoms: _1  and  _3
REMARK    2  A    between atoms: _3  and  _4
REMARK    3  A    between atoms: _3  and  _6
REMARK    4  A    between atoms: _6  and  _7
REMARK    5  A    between atoms: _10  and  _12
REMARK    6  A    between atoms: _12  and  _13
REMARK    7  A    between atoms: _12  and  _15
REMARK    8  A    between atoms: _15  and  _16
REMARK    9  A    between atoms: _21  and  _22
REMARK   10  A    between atoms: _24  and  _26
REMARK   11  A    between atoms: _26  and  _27
REMARK   12  A    between atoms: _26  and  _29
REMARK   13  A    between atoms: _29  and  _30
REMARK   14  A    between atoms: _34  and  _35
REMARK   15  A    between atoms: _40  and  _42
REMARK   16  A    between atoms: _42  and  _43
REMARK   17  A    between atoms: _42  and  _45
REMARK   18  A    between atoms: _45  and  _46
REMARK   19  A    between atoms: _49  and  _51
REMARK   20  A    between atoms: _51  and  _52
REMARK   21  A    between atoms: _54  and  _56
REMARK   22  A    between atoms: _56  and  _57
REMARK   23  A    between atoms: _60  and  _62
REMARK   24  A    between atoms: _62  and  _63
REMARK   25  A    between atoms: _62  and  _65
REMARK   26  A    between atoms: _65  and  _66
REMARK   27  A    between atoms: _69  and  _71
REMARK   28  A    between atoms: _71  and  _72
REMARK   29  A    between atoms: _71  and  _74
REMARK   30  A    between atoms: _74  and  _75
REMARK   31  A    between atoms: _78  and  _80
REMARK   32  A    between atoms: _80  and  _81
REMARK   33  A    between atoms: _80  and  _83
REMARK   34  A    between atoms: _83  and  _84
REMARK   35  A    between atoms: _89  and  _90
REMARK   36  A    between atoms: _92  and  _94
REMARK   37  A    between atoms: _94  and  _95
REMARK   38  A    between atoms: _94  and  _97
REMARK   39  A    between atoms: _97  and  _98
REMARK   40  A    between atoms: _101  and  _103
REMARK   41  A    between atoms: _103  and  _104
REMARK   42  A    between atoms: _103  and  _106
REMARK   43  A    between atoms: _106  and  _107
REMARK   44  A    between atoms: _117  and  _119
REMARK   45  A    between atoms: _119  and  _120
REMARK   46  A    between atoms: _119  and  _122
REMARK   47  A    between atoms: _122  and  _123
REMARK   48  A    between atoms: _126  and  _128
REMARK   49  A    between atoms: _128  and  _129
REMARK   50  A    between atoms: _128  and  _131
REMARK   51  A    between atoms: _131  and  _132
REMARK   52  A    between atoms: _137  and  _139
REMARK   53  A    between atoms: _139  and  _140
REMARK   54  A    between atoms: _142  and  _144
REMARK   55  A    between atoms: _144  and  _145
REMARK   56  A    between atoms: _144  and  _147
REMARK   57  A    between atoms: _147  and  _148
REMARK   58  A    between atoms: _153  and  _154
REMARK   59  A    between atoms: _156  and  _158
REMARK   60  A    between atoms: _158  and  _159
REMARK   61  A    between atoms: _158  and  _161
REMARK   62  A    between atoms: _161  and  _162
REMARK   63  A    between atoms: _165  and  _167
REMARK   64  A    between atoms: _167  and  _168
REMARK   65  A    between atoms: _170  and  _172
REMARK   66  A    between atoms: _172  and  _173
REMARK   67  A    between atoms: _172  and  _175
REMARK   68  A    between atoms: _175  and  _176
REMARK   69  A    between atoms: _178  and  _180
REMARK   70  A    between atoms: _180  and  _181
REMARK   71  A    between atoms: _180  and  _183
REMARK   72  A    between atoms: _183  and  _184
REMARK   73  A    between atoms: _184  and  _185
REMARK   74  A    between atoms: _187  and  _189
REMARK   75  A    between atoms: _189  and  _190
REMARK   76  A    between atoms: _192  and  _194
REMARK   77  A    between atoms: _194  and  _195
REMARK   78  A    between atoms: _194  and  _197
REMARK   79  A    between atoms: _200  and  _202
REMARK   80  A    between atoms: _202  and  _203
REMARK   81  A    between atoms: _202  and  _205
REMARK   82  A    between atoms: _205  and  _206
REMARK   83  A    between atoms: _209  and  _211
REMARK   84  A    between atoms: _211  and  _212
REMARK   85  A    between atoms: _214  and  _216
REMARK   86  A    between atoms: _216  and  _217
REMARK   87  A    between atoms: _216  and  _219
REMARK   88  A    between atoms: _219  and  _220
REMARK   89  A    between atoms: _220  and  _221
REMARK   90  A    between atoms: _221  and  CA_702
REMARK   91  A    between atoms: _223  and  _225
REMARK   92  A    between atoms: _225  and  _226
REMARK   93  A    between atoms: _228  and  _230
REMARK   94  A    between atoms: _230  and  _231
REMARK   95  A    between atoms: _230  and  _233
REMARK   96  A    between atoms: _233  and  _234
REMARK   97  A    between atoms: _236  and  _238
REMARK   98  A    between atoms: _238  and  _239
REMARK   99  A    between atoms: _238  and  _241
REMARK  100  A    between atoms: _244  and  _246
REMARK  101  A    between atoms: _246  and  _247
REMARK  102  A    between atoms: _249  and  _251
REMARK  103  A    between atoms: _251  and  _252
REMARK  104  A    between atoms: _251  and  _254
REMARK  105  A    between atoms: _254  and  _255
REMARK  106  A    between atoms: _260  and  _261
REMARK  107  A    between atoms: _263  and  _265
REMARK  108  A    between atoms: _265  and  _266
REMARK  109  A    between atoms: _265  and  _268
REMARK  110  A    between atoms: _268  and  _269
REMARK  111  A    between atoms: _272  and  _274
REMARK  112  A    between atoms: _274  and  _275
REMARK  113  A    between atoms: _274  and  _277
REMARK  114  A    between atoms: _275  and  _276
REMARK  115  A    between atoms: _275  and  _281
REMARK  116  A    between atoms: _276  and  CA_702
REMARK  117  A    between atoms: _277  and  _278
REMARK  118  A    between atoms: _278  and  _279
REMARK  119  A    between atoms: _281  and  _283
REMARK  120  A    between atoms: _283  and  _284
REMARK  121  A    between atoms: _283  and  _286
REMARK  122  A    between atoms: _286  and  _287
REMARK  123  A    between atoms: _292  and  _294
REMARK  124  A    between atoms: _294  and  _295
REMARK  125  A    between atoms: _294  and  _297
REMARK  126  A    between atoms: _297  and  _298
REMARK  127  A    between atoms: _303  and  _305
REMARK  128  A    between atoms: _305  and  _306
REMARK  129  A    between atoms: _305  and  _308
REMARK  130  A    between atoms: _308  and  _309
REMARK  131  A    between atoms: _309  and  _310
REMARK  132  A    between atoms: _315  and  _317
REMARK  133  A    between atoms: _317  and  _318
REMARK  134  A    between atoms: _317  and  _320
REMARK  135  A    between atoms: _320  and  _321
REMARK  136  A    between atoms: _323  and  _325
REMARK  137  A    between atoms: _325  and  _326
REMARK  138  A    between atoms: _325  and  _328
REMARK  139  A    between atoms: _328  and  _329
REMARK  140  A    between atoms: _339  and  _341
REMARK  141  A    between atoms: _341  and  _342
REMARK  142  A    between atoms: _344  and  _346
REMARK  143  A    between atoms: _346  and  _347
REMARK  144  A    between atoms: _350  and  _352
REMARK  145  A    between atoms: _352  and  _353
REMARK  146  A    between atoms: _352  and  _355
REMARK  147  A    between atoms: _355  and  _356
REMARK  148  A    between atoms: _359  and  _361
REMARK  149  A    between atoms: _361  and  _362
REMARK  150  A    between atoms: _361  and  _364
REMARK  151  A    between atoms: _364  and  _365
REMARK  152  A    between atoms: _368  and  _370
REMARK  153  A    between atoms: _370  and  _371
REMARK  154  A    between atoms: _370  and  _373
REMARK  155  A    between atoms: _373  and  _374
REMARK  156  A    between atoms: _379  and  _381
REMARK  157  A    between atoms: _381  and  _382
REMARK  158  A    between atoms: _381  and  _384
REMARK  159  A    between atoms: _384  and  _385
REMARK  160  A    between atoms: _391  and  _393
REMARK  161  A    between atoms: _393  and  _394
REMARK  162  A    between atoms: _393  and  _396
REMARK  163  A    between atoms: _396  and  _397
REMARK  164  A    between atoms: _397  and  _398
REMARK  165  A    between atoms: _403  and  _405
REMARK  166  A    between atoms: _405  and  _406
REMARK  167  A    between atoms: _408  and  _410
REMARK  168  A    between atoms: _410  and  _411
REMARK  169  A    between atoms: _410  and  _413
REMARK  170  A    between atoms: _413  and  _414
REMARK  171  A    between atoms: _417  and  _419
REMARK  172  A    between atoms: _419  and  _420
REMARK  173  A    between atoms: _419  and  _422
REMARK  174  A    between atoms: _422  and  _423
REMARK  175  A    between atoms: _426  and  _428
REMARK  176  A    between atoms: _428  and  _429
REMARK  177  A    between atoms: _428  and  _431
REMARK  178  A    between atoms: _431  and  _432
REMARK  179  A    between atoms: _437  and  _438
REMARK  180  A    between atoms: _440  and  _442
REMARK  181  A    between atoms: _442  and  _443
REMARK  182  A    between atoms: _442  and  _445
REMARK  183  A    between atoms: _448  and  _450
REMARK  184  A    between atoms: _450  and  _451
REMARK  185  A    between atoms: _454  and  _456
REMARK  186  A    between atoms: _456  and  _457
REMARK  187  A    between atoms: _456  and  _459
REMARK  188  A    between atoms: _459  and  _460
REMARK  189  A    between atoms: _463  and  _465
REMARK  190  A    between atoms: _465  and  _466
REMARK  191  A    between atoms: _465  and  _468
REMARK  192  A    between atoms: _468  and  _469
REMARK  193  A    between atoms: _469  and  _470
REMARK  194  A    between atoms: _473  and  _475
REMARK  195  A    between atoms: _475  and  _476
REMARK  196  A    between atoms: _475  and  _478
REMARK  197  A    between atoms: _478  and  _479
REMARK  198  A    between atoms: _479  and  _480
REMARK  199  A    between atoms: _483  and  _485
REMARK  200  A    between atoms: _485  and  _486
REMARK  201  A    between atoms: _485  and  _488
REMARK  202  A    between atoms: _488  and  _489
REMARK  203  A    between atoms: _492  and  _494
REMARK  204  A    between atoms: _494  and  _495
REMARK  205  A    between atoms: _494  and  _497
REMARK  206  A    between atoms: _497  and  _498
REMARK  207  A    between atoms: _503  and  _505
REMARK  208  A    between atoms: _505  and  _506
REMARK  209  A    between atoms: _508  and  _510
REMARK  210  A    between atoms: _510  and  _511
REMARK  211  A    between atoms: _510  and  _513
REMARK  212  A    between atoms: _513  and  _514
REMARK  213  A    between atoms: _516  and  _518
REMARK  214  A    between atoms: _518  and  _519
REMARK  215  A    between atoms: _518  and  _521
REMARK  216  A    between atoms: _521  and  _522
REMARK  217  A    between atoms: _527  and  _529
REMARK  218  A    between atoms: _529  and  _530
REMARK  219  A    between atoms: _529  and  _532
REMARK  220  A    between atoms: _532  and  _533
REMARK  221  A    between atoms: _536  and  _538
REMARK  222  A    between atoms: _538  and  _539
REMARK  223  A    between atoms: _538  and  _541
REMARK  224  A    between atoms: _541  and  _542
REMARK  225  A    between atoms: _545  and  _547
REMARK  226  A    between atoms: _547  and  _548
REMARK  227  A    between atoms: _547  and  _550
REMARK  228  A    between atoms: _550  and  _551
REMARK  229  A    between atoms: _551  and  _552
REMARK  230  A    between atoms: _552  and  _553
REMARK  231  A    between atoms: _562  and  _564
REMARK  232  A    between atoms: _564  and  _565
REMARK  233  A    between atoms: _564  and  _567
REMARK  234  A    between atoms: _567  and  _568
REMARK  235  A    between atoms: _573  and  _575
REMARK  236  A    between atoms: _575  and  _576
REMARK  237  A    between atoms: _575  and  _578
REMARK  238  A    between atoms: _578  and  _579
REMARK  239  A    between atoms: _579  and  _580
REMARK  240  A    between atoms: _583  and  _585
REMARK  241  A    between atoms: _585  and  _586
REMARK  242  A    between atoms: _589  and  _591
REMARK  243  A    between atoms: _591  and  _592
REMARK  244  A    between atoms: _591  and  _594
REMARK  245  A    between atoms: _597  and  _599
REMARK  246  A    between atoms: _599  and  _600
REMARK  247  A    between atoms: _599  and  _602
REMARK  248  A    between atoms: _602  and  _603
REMARK  249  A    between atoms: _606  and  _608
REMARK  250  A    between atoms: _608  and  _609
REMARK  251  A    between atoms: _612  and  _614
REMARK  252  A    between atoms: _614  and  _615
REMARK  253  A    between atoms: _617  and  _619
REMARK  254  A    between atoms: _619  and  _620
REMARK  255  A    between atoms: _622  and  _624
REMARK  256  A    between atoms: _624  and  _625
REMARK  257  A    between atoms: _627  and  _629
REMARK  258  A    between atoms: _629  and  _630
REMARK  259  A    between atoms: _629  and  _632
REMARK  260  A    between atoms: _632  and  _633
REMARK  261  A    between atoms: _639  and  _641
REMARK  262  A    between atoms: _641  and  _642
REMARK  263  A    between atoms: _641  and  _644
REMARK  264  A    between atoms: _644  and  _645
REMARK  265  A    between atoms: _648  and  _650
REMARK  266  A    between atoms: _650  and  _651
REMARK  267  A    between atoms: _650  and  _653
REMARK  268  A    between atoms: _653  and  _654
REMARK  269  A    between atoms: _659  and  _661
REMARK  270  A    between atoms: _661  and  _662
REMARK  271  A    between atoms: _665  and  _667
REMARK  272  A    between atoms: _667  and  _668
REMARK  273  A    between atoms: _667  and  _670
REMARK  274  A    between atoms: _670  and  _671
REMARK  275  A    between atoms: _674  and  _676
REMARK  276  A    between atoms: _676  and  _677
REMARK  277  A    between atoms: _676  and  _679
REMARK  278  A    between atoms: _679  and  _680
REMARK  279  A    between atoms: _680  and  _681
REMARK  280  A    between atoms: _686  and  _688
REMARK  281  A    between atoms: _688  and  _689
REMARK  282  A    between atoms: _688  and  _691
REMARK  283  A    between atoms: _691  and  _692
REMARK                            x       y       z     vdW  Elec       q    Type
REMARK                         _______ _______ _______ _____ _____    ______ ____
ROOT
ATOM      1  O   HOH     1       8.351 -56.149 -26.064  0.00  0.00    +0.000 OA
ENDROOT
TORSDOF 0
REMARK  Name = ../refined-set-2016/3iae/3iae_pocket.pdb
REMARK  283 active torsions:
REMARK  status: ('A' for Active; 'I' for Inactive)
REMARK    1  A    between atoms: _1  and  _3
REMARK    2  A    between atoms: _3  and  _4
REMARK    3  A    between atoms: _3  and  _6
REMARK    4  A    between atoms: _6  and  _7
REMARK    5  A    between atoms: _10  and  _12
REMARK    6  A    between atoms: _12  and  _13
REMARK    7  A    between atoms: _12  and  _15
REMARK    8  A    between atoms: _15  and  _16
REMARK    9  A    between atoms: _21  and  _22
REMARK   10  A    between atoms: _24  and  _26
REMARK   11  A    between atoms: _26  and  _27
REMARK   12  A    between atoms: _26  and  _29
REMARK   13  A    between atoms: _29  and  _30
REMARK   14  A    between atoms: _34  and  _35
REMARK   15  A    between atoms: _40  and  _42
REMARK   16  A    between atoms: _42  and  _43
REMARK   17  A    between atoms: _42  and  _45
REMARK   18  A    between atoms: _45  and  _46
REMARK   19  A    between atoms: _49  and  _51
REMARK   20  A    between atoms: _51  and  _52
REMARK   21  A    between atoms: _54  and  _56
REMARK   22  A    between atoms: _56  and  _57
REMARK   23  A    between atoms: _60  and  _62
REMARK   24  A    between atoms: _62  and  _63
REMARK   25  A    between atoms: _62  and  _65
REMARK   26  A    between atoms: _65  and  _66
REMARK   27  A    between atoms: _69  and  _71
REMARK   28  A    between atoms: _71  and  _72
REMARK   29  A    between atoms: _71  and  _74
REMARK   30  A    between atoms: _74  and  _75
REMARK   31  A    between atoms: _78  and  _80
REMARK   32  A    between atoms: _80  and  _81
REMARK   33  A    between atoms: _80  and  _83
REMARK   34  A    between atoms: _83  and  _84
REMARK   35  A    between atoms: _89  and  _90
REMARK   36  A    between atoms: _92  and  _94
REMARK   37  A    between atoms: _94  and  _95
REMARK   38  A    between atoms: _94  and  _97
REMARK   39  A    between atoms: _97  and  _98
REMARK   40  A    between atoms: _101  and  _103
REMARK   41  A    between atoms: _103  and  _104
REMARK   42  A    between atoms: _103  and  _106
REMARK   43  A    between atoms: _106  and  _107
REMARK   44  A    between atoms: _117  and  _119
REMARK   45  A    between atoms: _119  and  _120
REMARK   46  A    between atoms: _119  and  _122
REMARK   47  A    between atoms: _122  and  _123
REMARK   48  A    between atoms: _126  and  _128
REMARK   49  A    between atoms: _128  and  _129
REMARK   50  A    between atoms: _128  and  _131
REMARK   51  A    between atoms: _131  and  _132
REMARK   52  A    between atoms: _137  and  _139
REMARK   53  A    between atoms: _139  and  _140
REMARK   54  A    between atoms: _142  and  _144
REMARK   55  A    between atoms: _144  and  _145
REMARK   56  A    between atoms: _144  and  _147
REMARK   57  A    between atoms: _147  and  _148
REMARK   58  A    between atoms: _153  and  _154
REMARK   59  A    between atoms: _156  and  _158
REMARK   60  A    between atoms: _158  and  _159
REMARK   61  A    between atoms: _158  and  _161
REMARK   62  A    between atoms: _161  and  _162
REMARK   63  A    between atoms: _165  and  _167
REMARK   64  A    between atoms: _167  and  _168
REMARK   65  A    between atoms: _170  and  _172
REMARK   66  A    between atoms: _172  and  _173
REMARK   67  A    between atoms: _172  and  _175
REMARK   68  A    between atoms: _175  and  _176
REMARK   69  A    between atoms: _178  and  _180
REMARK   70  A    between atoms: _180  and  _181
REMARK   71  A    between atoms: _180  and  _183
REMARK   72  A    between atoms: _183  and  _184
REMARK   73  A    between atoms: _184  and  _185
REMARK   74  A    between atoms: _187  and  _189
REMARK   75  A    between atoms: _189  and  _190
REMARK   76  A    between atoms: _192  and  _194
REMARK   77  A    between atoms: _194  and  _195
REMARK   78  A    between atoms: _194  and  _197
REMARK   79  A    between atoms: _200  and  _202
REMARK   80  A    between atoms: _202  and  _203
REMARK   81  A    between atoms: _202  and  _205
REMARK   82  A    between atoms: _205  and  _206
REMARK   83  A    between atoms: _209  and  _211
REMARK   84  A    between atoms: _211  and  _212
REMARK   85  A    between atoms: _214  and  _216
REMARK   86  A    between atoms: _216  and  _217
REMARK   87  A    between atoms: _216  and  _219
REMARK   88  A    between atoms: _219  and  _220
REMARK   89  A    between atoms: _220  and  _221
REMARK   90  A    between atoms: _221  and  CA_702
REMARK   91  A    between atoms: _223  and  _225
REMARK   92  A    between atoms: _225  and  _226
REMARK   93  A    between atoms: _228  and  _230
REMARK   94  A    between atoms: _230  and  _231
REMARK   95  A    between atoms: _230  and  _233
REMARK   96  A    between atoms: _233  and  _234
REMARK   97  A    between atoms: _236  and  _238
REMARK   98  A    between atoms: _238  and  _239
REMARK   99  A    between atoms: _238  and  _241
REMARK  100  A    between atoms: _244  and  _246
REMARK  101  A    between atoms: _246  and  _247
REMARK  102  A    between atoms: _249  and  _251
REMARK  103  A    between atoms: _251  and  _252
REMARK  104  A    between atoms: _251  and  _254
REMARK  105  A    between atoms: _254  and  _255
REMARK  106  A    between atoms: _260  and  _261
REMARK  107  A    between atoms: _263  and  _265
REMARK  108  A    between atoms: _265  and  _266
REMARK  109  A    between atoms: _265  and  _268
REMARK  110  A    between atoms: _268  and  _269
REMARK  111  A    between atoms: _272  and  _274
REMARK  112  A    between atoms: _274  and  _275
REMARK  113  A    between atoms: _274  and  _277
REMARK  114  A    between atoms: _275  and  _276
REMARK  115  A    between atoms: _275  and  _281
REMARK  116  A    between atoms: _276  and  CA_702
REMARK  117  A    between atoms: _277  and  _278
REMARK  118  A    between atoms: _278  and  _279
REMARK  119  A    between atoms: _281  and  _283
REMARK  120  A    between atoms: _283  and  _284
REMARK  121  A    between atoms: _283  and  _286
REMARK  122  A    between atoms: _286  and  _287
REMARK  123  A    between atoms: _292  and  _294
REMARK  124  A    between atoms: _294  and  _295
REMARK  125  A    between atoms: _294  and  _297
REMARK  126  A    between atoms: _297  and  _298
REMARK  127  A    between atoms: _303  and  _305
REMARK  128  A    between atoms: _305  and  _306
REMARK  129  A    between atoms: _305  and  _308
REMARK  130  A    between atoms: _308  and  _309
REMARK  131  A    between atoms: _309  and  _310
REMARK  132  A    between atoms: _315  and  _317
REMARK  133  A    between atoms: _317  and  _318
REMARK  134  A    between atoms: _317  and  _320
REMARK  135  A    between atoms: _320  and  _321
REMARK  136  A    between atoms: _323  and  _325
REMARK  137  A    between atoms: _325  and  _326
REMARK  138  A    between atoms: _325  and  _328
REMARK  139  A    between atoms: _328  and  _329
REMARK  140  A    between atoms: _339  and  _341
REMARK  141  A    between atoms: _341  and  _342
REMARK  142  A    between atoms: _344  and  _346
REMARK  143  A    between atoms: _346  and  _347
REMARK  144  A    between atoms: _350  and  _352
REMARK  145  A    between atoms: _352  and  _353
REMARK  146  A    between atoms: _352  and  _355
REMARK  147  A    between atoms: _355  and  _356
REMARK  148  A    between atoms: _359  and  _361
REMARK  149  A    between atoms: _361  and  _362
REMARK  150  A    between atoms: _361  and  _364
REMARK  151  A    between atoms: _364  and  _365
REMARK  152  A    between atoms: _368  and  _370
REMARK  153  A    between atoms: _370  and  _371
REMARK  154  A    between atoms: _370  and  _373
REMARK  155  A    between atoms: _373  and  _374
REMARK  156  A    between atoms: _379  and  _381
REMARK  157  A    between atoms: _381  and  _382
REMARK  158  A    between atoms: _381  and  _384
REMARK  159  A    between atoms: _384  and  _385
REMARK  160  A    between atoms: _391  and  _393
REMARK  161  A    between atoms: _393  and  _394
REMARK  162  A    between atoms: _393  and  _396
REMARK  163  A    between atoms: _396  and  _397
REMARK  164  A    between atoms: _397  and  _398
REMARK  165  A    between atoms: _403  and  _405
REMARK  166  A    between atoms: _405  and  _406
REMARK  167  A    between atoms: _408  and  _410
REMARK  168  A    between atoms: _410  and  _411
REMARK  169  A    between atoms: _410  and  _413
REMARK  170  A    between atoms: _413  and  _414
REMARK  171  A    between atoms: _417  and  _419
REMARK  172  A    between atoms: _419  and  _420
REMARK  173  A    between atoms: _419  and  _422
REMARK  174  A    between atoms: _422  and  _423
REMARK  175  A    between atoms: _426  and  _428
REMARK  176  A    between atoms: _428  and  _429
REMARK  177  A    between atoms: _428  and  _431
REMARK  178  A    between atoms: _431  and  _432
REMARK  179  A    between atoms: _437  and  _438
REMARK  180  A    between atoms: _440  and  _442
REMARK  181  A    between atoms: _442  and  _443
REMARK  182  A    between atoms: _442  and  _445
REMARK  183  A    between atoms: _448  and  _450
REMARK  184  A    between atoms: _450  and  _451
REMARK  185  A    between atoms: _454  and  _456
REMARK  186  A    between atoms: _456  and  _457
REMARK  187  A    between atoms: _456  and  _459
REMARK  188  A    between atoms: _459  and  _460
REMARK  189  A    between atoms: _463  and  _465
REMARK  190  A    between atoms: _465  and  _466
REMARK  191  A    between atoms: _465  and  _468
REMARK  192  A    between atoms: _468  and  _469
REMARK  193  A    between atoms: _469  and  _470
REMARK  194  A    between atoms: _473  and  _475
REMARK  195  A    between atoms: _475  and  _476
REMARK  196  A    between atoms: _475  and  _478
REMARK  197  A    between atoms: _478  and  _479
REMARK  198  A    between atoms: _479  and  _480
REMARK  199  A    between atoms: _483  and  _485
REMARK  200  A    between atoms: _485  and  _486
REMARK  201  A    between atoms: _485  and  _488
REMARK  202  A    between atoms: _488  and  _489
REMARK  203  A    between atoms: _492  and  _494
REMARK  204  A    between atoms: _494  and  _495
REMARK  205  A    between atoms: _494  and  _497
REMARK  206  A    between atoms: _497  and  _498
REMARK  207  A    between atoms: _503  and  _505
REMARK  208  A    between atoms: _505  and  _506
REMARK  209  A    between atoms: _508  and  _510
REMARK  210  A    between atoms: _510  and  _511
REMARK  211  A    between atoms: _510  and  _513
REMARK  212  A    between atoms: _513  and  _514
REMARK  213  A    between atoms: _516  and  _518
REMARK  214  A    between atoms: _518  and  _519
REMARK  215  A    between atoms: _518  and  _521
REMARK  216  A    between atoms: _521  and  _522
REMARK  217  A    between atoms: _527  and  _529
REMARK  218  A    between atoms: _529  and  _530
REMARK  219  A    between atoms: _529  and  _532
REMARK  220  A    between atoms: _532  and  _533
REMARK  221  A    between atoms: _536  and  _538
REMARK  222  A    between atoms: _538  and  _539
REMARK  223  A    between atoms: _538  and  _541
REMARK  224  A    between atoms: _541  and  _542
REMARK  225  A    between atoms: _545  and  _547
REMARK  226  A    between atoms: _547  and  _548
REMARK  227  A    between atoms: _547  and  _550
REMARK  228  A    between atoms: _550  and  _551
REMARK  229  A    between atoms: _551  and  _552
REMARK  230  A    between atoms: _552  and  _553
REMARK  231  A    between atoms: _562  and  _564
REMARK  232  A    between atoms: _564  and  _565
REMARK  233  A    between atoms: _564  and  _567
REMARK  234  A    between atoms: _567  and  _568
REMARK  235  A    between atoms: _573  and  _575
REMARK  236  A    between atoms: _575  and  _576
REMARK  237  A    between atoms: _575  and  _578
REMARK  238  A    between atoms: _578  and  _579
REMARK  239  A    between atoms: _579  and  _580
REMARK  240  A    between atoms: _583  and  _585
REMARK  241  A    between atoms: _585  and  _586
REMARK  242  A    between atoms: _589  and  _591
REMARK  243  A    between atoms: _591  and  _592
REMARK  244  A    between atoms: _591  and  _594
REMARK  245  A    between atoms: _597  and  _599
REMARK  246  A    between atoms: _599  and  _600
REMARK  247  A    between atoms: _599  and  _602
REMARK  248  A    between atoms: _602  and  _603
REMARK  249  A    between atoms: _606  and  _608
REMARK  250  A    between atoms: _608  and  _609
REMARK  251  A    between atoms: _612  and  _614
REMARK  252  A    between atoms: _614  and  _615
REMARK  253  A    between atoms: _617  and  _619
REMARK  254  A    between atoms: _619  and  _620
REMARK  255  A    between atoms: _622  and  _624
REMARK  256  A    between atoms: _624  and  _625
REMARK  257  A    between atoms: _627  and  _629
REMARK  258  A    between atoms: _629  and  _630
REMARK  259  A    between atoms: _629  and  _632
REMARK  260  A    between atoms: _632  and  _633
REMARK  261  A    between atoms: _639  and  _641
REMARK  262  A    between atoms: _641  and  _642
REMARK  263  A    between atoms: _641  and  _644
REMARK  264  A    between atoms: _644  and  _645
REMARK  265  A    between atoms: _648  and  _650
REMARK  266  A    between atoms: _650  and  _651
REMARK  267  A    between atoms: _650  and  _653
REMARK  268  A    between atoms: _653  and  _654
REMARK  269  A    between atoms: _659  and  _661
REMARK  270  A    between atoms: _661  and  _662
REMARK  271  A    between atoms: _665  and  _667
REMARK  272  A    between atoms: _667  and  _668
REMARK  273  A    between atoms: _667  and  _670
REMARK  274  A    between atoms: _670  and  _671
REMARK  275  A    between atoms: _674  and  _676
REMARK  276  A    between atoms: _676  and  _677
REMARK  277  A    between atoms: _676  and  _679
REMARK  278  A    between atoms: _679  and  _680
REMARK  279  A    between atoms: _680  and  _681
REMARK  280  A    between atoms: _686  and  _688
REMARK  281  A    between atoms: _688  and  _689
REMARK  282  A    between atoms: _688  and  _691
REMARK  283  A    between atoms: _691  and  _692
REMARK                            x       y       z     vdW  Elec       q    Type
REMARK                         _______ _______ _______ _____ _____    ______ ____
ROOT
ATOM      1  O   HOH     1     -11.440 -45.890 -27.643  0.00  0.00    +0.000 OA
ENDROOT
TORSDOF 0
REMARK  Name = ../refined-set-2016/3iae/3iae_pocket.pdb
REMARK  283 active torsions:
REMARK  status: ('A' for Active; 'I' for Inactive)
REMARK    1  A    between atoms: _1  and  _3
REMARK    2  A    between atoms: _3  and  _4
REMARK    3  A    between atoms: _3  and  _6
REMARK    4  A    between atoms: _6  and  _7
REMARK    5  A    between atoms: _10  and  _12
REMARK    6  A    between atoms: _12  and  _13
REMARK    7  A    between atoms: _12  and  _15
REMARK    8  A    between atoms: _15  and  _16
REMARK    9  A    between atoms: _21  and  _22
REMARK   10  A    between atoms: _24  and  _26
REMARK   11  A    between atoms: _26  and  _27
REMARK   12  A    between atoms: _26  and  _29
REMARK   13  A    between atoms: _29  and  _30
REMARK   14  A    between atoms: _34  and  _35
REMARK   15  A    between atoms: _40  and  _42
REMARK   16  A    between atoms: _42  and  _43
REMARK   17  A    between atoms: _42  and  _45
REMARK   18  A    between atoms: _45  and  _46
REMARK   19  A    between atoms: _49  and  _51
REMARK   20  A    between atoms: _51  and  _52
REMARK   21  A    between atoms: _54  and  _56
REMARK   22  A    between atoms: _56  and  _57
REMARK   23  A    between atoms: _60  and  _62
REMARK   24  A    between atoms: _62  and  _63
REMARK   25  A    between atoms: _62  and  _65
REMARK   26  A    between atoms: _65  and  _66
REMARK   27  A    between atoms: _69  and  _71
REMARK   28  A    between atoms: _71  and  _72
REMARK   29  A    between atoms: _71  and  _74
REMARK   30  A    between atoms: _74  and  _75
REMARK   31  A    between atoms: _78  and  _80
REMARK   32  A    between atoms: _80  and  _81
REMARK   33  A    between atoms: _80  and  _83
REMARK   34  A    between atoms: _83  and  _84
REMARK   35  A    between atoms: _89  and  _90
REMARK   36  A    between atoms: _92  and  _94
REMARK   37  A    between atoms: _94  and  _95
REMARK   38  A    between atoms: _94  and  _97
REMARK   39  A    between atoms: _97  and  _98
REMARK   40  A    between atoms: _101  and  _103
REMARK   41  A    between atoms: _103  and  _104
REMARK   42  A    between atoms: _103  and  _106
REMARK   43  A    between atoms: _106  and  _107
REMARK   44  A    between atoms: _117  and  _119
REMARK   45  A    between atoms: _119  and  _120
REMARK   46  A    between atoms: _119  and  _122
REMARK   47  A    between atoms: _122  and  _123
REMARK   48  A    between atoms: _126  and  _128
REMARK   49  A    between atoms: _128  and  _129
REMARK   50  A    between atoms: _128  and  _131
REMARK   51  A    between atoms: _131  and  _132
REMARK   52  A    between atoms: _137  and  _139
REMARK   53  A    between atoms: _139  and  _140
REMARK   54  A    between atoms: _142  and  _144
REMARK   55  A    between atoms: _144  and  _145
REMARK   56  A    between atoms: _144  and  _147
REMARK   57  A    between atoms: _147  and  _148
REMARK   58  A    between atoms: _153  and  _154
REMARK   59  A    between atoms: _156  and  _158
REMARK   60  A    between atoms: _158  and  _159
REMARK   61  A    between atoms: _158  and  _161
REMARK   62  A    between atoms: _161  and  _162
REMARK   63  A    between atoms: _165  and  _167
REMARK   64  A    between atoms: _167  and  _168
REMARK   65  A    between atoms: _170  and  _172
REMARK   66  A    between atoms: _172  and  _173
REMARK   67  A    between atoms: _172  and  _175
REMARK   68  A    between atoms: _175  and  _176
REMARK   69  A    between atoms: _178  and  _180
REMARK   70  A    between atoms: _180  and  _181
REMARK   71  A    between atoms: _180  and  _183
REMARK   72  A    between atoms: _183  and  _184
REMARK   73  A    between atoms: _184  and  _185
REMARK   74  A    between atoms: _187  and  _189
REMARK   75  A    between atoms: _189  and  _190
REMARK   76  A    between atoms: _192  and  _194
REMARK   77  A    between atoms: _194  and  _195
REMARK   78  A    between atoms: _194  and  _197
REMARK   79  A    between atoms: _200  and  _202
REMARK   80  A    between atoms: _202  and  _203
REMARK   81  A    between atoms: _202  and  _205
REMARK   82  A    between atoms: _205  and  _206
REMARK   83  A    between atoms: _209  and  _211
REMARK   84  A    between atoms: _211  and  _212
REMARK   85  A    between atoms: _214  and  _216
REMARK   86  A    between atoms: _216  and  _217
REMARK   87  A    between atoms: _216  and  _219
REMARK   88  A    between atoms: _219  and  _220
REMARK   89  A    between atoms: _220  and  _221
REMARK   90  A    between atoms: _221  and  CA_702
REMARK   91  A    between atoms: _223  and  _225
REMARK   92  A    between atoms: _225  and  _226
REMARK   93  A    between atoms: _228  and  _230
REMARK   94  A    between atoms: _230  and  _231
REMARK   95  A    between atoms: _230  and  _233
REMARK   96  A    between atoms: _233  and  _234
REMARK   97  A    between atoms: _236  and  _238
REMARK   98  A    between atoms: _238  and  _239
REMARK   99  A    between atoms: _238  and  _241
REMARK  100  A    between atoms: _244  and  _246
REMARK  101  A    between atoms: _246  and  _247
REMARK  102  A    between atoms: _249  and  _251
REMARK  103  A    between atoms: _251  and  _252
REMARK  104  A    between atoms: _251  and  _254
REMARK  105  A    between atoms: _254  and  _255
REMARK  106  A    between atoms: _260  and  _261
REMARK  107  A    between atoms: _263  and  _265
REMARK  108  A    between atoms: _265  and  _266
REMARK  109  A    between atoms: _265  and  _268
REMARK  110  A    between atoms: _268  and  _269
REMARK  111  A    between atoms: _272  and  _274
REMARK  112  A    between atoms: _274  and  _275
REMARK  113  A    between atoms: _274  and  _277
REMARK  114  A    between atoms: _275  and  _276
REMARK  115  A    between atoms: _275  and  _281
REMARK  116  A    between atoms: _276  and  CA_702
REMARK  117  A    between atoms: _277  and  _278
REMARK  118  A    between atoms: _278  and  _279
REMARK  119  A    between atoms: _281  and  _283
REMARK  120  A    between atoms: _283  and  _284
REMARK  121  A    between atoms: _283  and  _286
REMARK  122  A    between atoms: _286  and  _287
REMARK  123  A    between atoms: _292  and  _294
REMARK  124  A    between atoms: _294  and  _295
REMARK  125  A    between atoms: _294  and  _297
REMARK  126  A    between atoms: _297  and  _298
REMARK  127  A    between atoms: _303  and  _305
REMARK  128  A    between atoms: _305  and  _306
REMARK  129  A    between atoms: _305  and  _308
REMARK  130  A    between atoms: _308  and  _309
REMARK  131  A    between atoms: _309  and  _310
REMARK  132  A    between atoms: _315  and  _317
REMARK  133  A    between atoms: _317  and  _318
REMARK  134  A    between atoms: _317  and  _320
REMARK  135  A    between atoms: _320  and  _321
REMARK  136  A    between atoms: _323  and  _325
REMARK  137  A    between atoms: _325  and  _326
REMARK  138  A    between atoms: _325  and  _328
REMARK  139  A    between atoms: _328  and  _329
REMARK  140  A    between atoms: _339  and  _341
REMARK  141  A    between atoms: _341  and  _342
REMARK  142  A    between atoms: _344  and  _346
REMARK  143  A    between atoms: _346  and  _347
REMARK  144  A    between atoms: _350  and  _352
REMARK  145  A    between atoms: _352  and  _353
REMARK  146  A    between atoms: _352  and  _355
REMARK  147  A    between atoms: _355  and  _356
REMARK  148  A    between atoms: _359  and  _361
REMARK  149  A    between atoms: _361  and  _362
REMARK  150  A    between atoms: _361  and  _364
REMARK  151  A    between atoms: _364  and  _365
REMARK  152  A    between atoms: _368  and  _370
REMARK  153  A    between atoms: _370  and  _371
REMARK  154  A    between atoms: _370  and  _373
REMARK  155  A    between atoms: _373  and  _374
REMARK  156  A    between atoms: _379  and  _381
REMARK  157  A    between atoms: _381  and  _382
REMARK  158  A    between atoms: _381  and  _384
REMARK  159  A    between atoms: _384  and  _385
REMARK  160  A    between atoms: _391  and  _393
REMARK  161  A    between atoms: _393  and  _394
REMARK  162  A    between atoms: _393  and  _396
REMARK  163  A    between atoms: _396  and  _397
REMARK  164  A    between atoms: _397  and  _398
REMARK  165  A    between atoms: _403  and  _405
REMARK  166  A    between atoms: _405  and  _406
REMARK  167  A    between atoms: _408  and  _410
REMARK  168  A    between atoms: _410  and  _411
REMARK  169  A    between atoms: _410  and  _413
REMARK  170  A    between atoms: _413  and  _414
REMARK  171  A    between atoms: _417  and  _419
REMARK  172  A    between atoms: _419  and  _420
REMARK  173  A    between atoms: _419  and  _422
REMARK  174  A    between atoms: _422  and  _423
REMARK  175  A    between atoms: _426  and  _428
REMARK  176  A    between atoms: _428  and  _429
REMARK  177  A    between atoms: _428  and  _431
REMARK  178  A    between atoms: _431  and  _432
REMARK  179  A    between atoms: _437  and  _438
REMARK  180  A    between atoms: _440  and  _442
REMARK  181  A    between atoms: _442  and  _443
REMARK  182  A    between atoms: _442  and  _445
REMARK  183  A    between atoms: _448  and  _450
REMARK  184  A    between atoms: _450  and  _451
REMARK  185  A    between atoms: _454  and  _456
REMARK  186  A    between atoms: _456  and  _457
REMARK  187  A    between atoms: _456  and  _459
REMARK  188  A    between atoms: _459  and  _460
REMARK  189  A    between atoms: _463  and  _465
REMARK  190  A    between atoms: _465  and  _466
REMARK  191  A    between atoms: _465  and  _468
REMARK  192  A    between atoms: _468  and  _469
REMARK  193  A    between atoms: _469  and  _470
REMARK  194  A    between atoms: _473  and  _475
REMARK  195  A    between atoms: _475  and  _476
REMARK  196  A    between atoms: _475  and  _478
REMARK  197  A    between atoms: _478  and  _479
REMARK  198  A    between atoms: _479  and  _480
REMARK  199  A    between atoms: _483  and  _485
REMARK  200  A    between atoms: _485  and  _486
REMARK  201  A    between atoms: _485  and  _488
REMARK  202  A    between atoms: _488  and  _489
REMARK  203  A    between atoms: _492  and  _494
REMARK  204  A    between atoms: _494  and  _495
REMARK  205  A    between atoms: _494  and  _497
REMARK  206  A    between atoms: _497  and  _498
REMARK  207  A    between atoms: _503  and  _505
REMARK  208  A    between atoms: _505  and  _506
REMARK  209  A    between atoms: _508  and  _510
REMARK  210  A    between atoms: _510  and  _511
REMARK  211  A    between atoms: _510  and  _513
REMARK  212  A    between atoms: _513  and  _514
REMARK  213  A    between atoms: _516  and  _518
REMARK  214  A    between atoms: _518  and  _519
REMARK  215  A    between atoms: _518  and  _521
REMARK  216  A    between atoms: _521  and  _522
REMARK  217  A    between atoms: _527  and  _529
REMARK  218  A    between atoms: _529  and  _530
REMARK  219  A    between atoms: _529  and  _532
REMARK  220  A    between atoms: _532  and  _533
REMARK  221  A    between atoms: _536  and  _538
REMARK  222  A    between atoms: _538  and  _539
REMARK  223  A    between atoms: _538  and  _541
REMARK  224  A    between atoms: _541  and  _542
REMARK  225  A    between atoms: _545  and  _547
REMARK  226  A    between atoms: _547  and  _548
REMARK  227  A    between atoms: _547  and  _550
REMARK  228  A    between atoms: _550  and  _551
REMARK  229  A    between atoms: _551  and  _552
REMARK  230  A    between atoms: _552  and  _553
REMARK  231  A    between atoms: _562  and  _564
REMARK  232  A    between atoms: _564  and  _565
REMARK  233  A    between atoms: _564  and  _567
REMARK  234  A    between atoms: _567  and  _568
REMARK  235  A    between atoms: _573  and  _575
REMARK  236  A    between atoms: _575  and  _576
REMARK  237  A    between atoms: _575  and  _578
REMARK  238  A    between atoms: _578  and  _579
REMARK  239  A    between atoms: _579  and  _580
REMARK  240  A    between atoms: _583  and  _585
REMARK  241  A    between atoms: _585  and  _586
REMARK  242  A    between atoms: _589  and  _591
REMARK  243  A    between atoms: _591  and  _592
REMARK  244  A    between atoms: _591  and  _594
REMARK  245  A    between atoms: _597  and  _599
REMARK  246  A    between atoms: _599  and  _600
REMARK  247  A    between atoms: _599  and  _602
REMARK  248  A    between atoms: _602  and  _603
REMARK  249  A    between atoms: _606  and  _608
REMARK  250  A    between atoms: _608  and  _609
REMARK  251  A    between atoms: _612  and  _614
REMARK  252  A    between atoms: _614  and  _615
REMARK  253  A    between atoms: _617  and  _619
REMARK  254  A    between atoms: _619  and  _620
REMARK  255  A    between atoms: _622  and  _624
REMARK  256  A    between atoms: _624  and  _625
REMARK  257  A    between atoms: _627  and  _629
REMARK  258  A    between atoms: _629  and  _630
REMARK  259  A    between atoms: _629  and  _632
REMARK  260  A    between atoms: _632  and  _633
REMARK  261  A    between atoms: _639  and  _641
REMARK  262  A    between atoms: _641  and  _642
REMARK  263  A    between atoms: _641  and  _644
REMARK  264  A    between atoms: _644  and  _645
REMARK  265  A    between atoms: _648  and  _650
REMARK  266  A    between atoms: _650  and  _651
REMARK  267  A    between atoms: _650  and  _653
REMARK  268  A    between atoms: _653  and  _654
REMARK  269  A    between atoms: _659  and  _661
REMARK  270  A    between atoms: _661  and  _662
REMARK  271  A    between atoms: _665  and  _667
REMARK  272  A    between atoms: _667  and  _668
REMARK  273  A    between atoms: _667  and  _670
REMARK  274  A    between atoms: _670  and  _671
REMARK  275  A    between atoms: _674  and  _676
REMARK  276  A    between atoms: _676  and  _677
REMARK  277  A    between atoms: _676  and  _679
REMARK  278  A    between atoms: _679  and  _680
REMARK  279  A    between atoms: _680  and  _681
REMARK  280  A    between atoms: _686  and  _688
REMARK  281  A    between atoms: _688  and  _689
REMARK  282  A    between atoms: _688  and  _691
REMARK  283  A    between atoms: _691  and  _692
REMARK                            x       y       z     vdW  Elec       q    Type
REMARK                         _______ _______ _______ _____ _____    ______ ____
ROOT
ATOM      1  O   HOH     1      -1.611 -46.497 -16.703  0.00  0.00    +0.000 OA
ENDROOT
TORSDOF 0
REMARK  Name = ../refined-set-2016/3iae/3iae_pocket.pdb
REMARK  283 active torsions:
REMARK  status: ('A' for Active; 'I' for Inactive)
REMARK    1  A    between atoms: _1  and  _3
REMARK    2  A    between atoms: _3  and  _4
REMARK    3  A    between atoms: _3  and  _6
REMARK    4  A    between atoms: _6  and  _7
REMARK    5  A    between atoms: _10  and  _12
REMARK    6  A    between atoms: _12  and  _13
REMARK    7  A    between atoms: _12  and  _15
REMARK    8  A    between atoms: _15  and  _16
REMARK    9  A    between atoms: _21  and  _22
REMARK   10  A    between atoms: _24  and  _26
REMARK   11  A    between atoms: _26  and  _27
REMARK   12  A    between atoms: _26  and  _29
REMARK   13  A    between atoms: _29  and  _30
REMARK   14  A    between atoms: _34  and  _35
REMARK   15  A    between atoms: _40  and  _42
REMARK   16  A    between atoms: _42  and  _43
REMARK   17  A    between atoms: _42  and  _45
REMARK   18  A    between atoms: _45  and  _46
REMARK   19  A    between atoms: _49  and  _51
REMARK   20  A    between atoms: _51  and  _52
REMARK   21  A    between atoms: _54  and  _56
REMARK   22  A    between atoms: _56  and  _57
REMARK   23  A    between atoms: _60  and  _62
REMARK   24  A    between atoms: _62  and  _63
REMARK   25  A    between atoms: _62  and  _65
REMARK   26  A    between atoms: _65  and  _66
REMARK   27  A    between atoms: _69  and  _71
REMARK   28  A    between atoms: _71  and  _72
REMARK   29  A    between atoms: _71  and  _74
REMARK   30  A    between atoms: _74  and  _75
REMARK   31  A    between atoms: _78  and  _80
REMARK   32  A    between atoms: _80  and  _81
REMARK   33  A    between atoms: _80  and  _83
REMARK   34  A    between atoms: _83  and  _84
REMARK   35  A    between atoms: _89  and  _90
REMARK   36  A    between atoms: _92  and  _94
REMARK   37  A    between atoms: _94  and  _95
REMARK   38  A    between atoms: _94  and  _97
REMARK   39  A    between atoms: _97  and  _98
REMARK   40  A    between atoms: _101  and  _103
REMARK   41  A    between atoms: _103  and  _104
REMARK   42  A    between atoms: _103  and  _106
REMARK   43  A    between atoms: _106  and  _107
REMARK   44  A    between atoms: _117  and  _119
REMARK   45  A    between atoms: _119  and  _120
REMARK   46  A    between atoms: _119  and  _122
REMARK   47  A    between atoms: _122  and  _123
REMARK   48  A    between atoms: _126  and  _128
REMARK   49  A    between atoms: _128  and  _129
REMARK   50  A    between atoms: _128  and  _131
REMARK   51  A    between atoms: _131  and  _132
REMARK   52  A    between atoms: _137  and  _139
REMARK   53  A    between atoms: _139  and  _140
REMARK   54  A    between atoms: _142  and  _144
REMARK   55  A    between atoms: _144  and  _145
REMARK   56  A    between atoms: _144  and  _147
REMARK   57  A    between atoms: _147  and  _148
REMARK   58  A    between atoms: _153  and  _154
REMARK   59  A    between atoms: _156  and  _158
REMARK   60  A    between atoms: _158  and  _159
REMARK   61  A    between atoms: _158  and  _161
REMARK   62  A    between atoms: _161  and  _162
REMARK   63  A    between atoms: _165  and  _167
REMARK   64  A    between atoms: _167  and  _168
REMARK   65  A    between atoms: _170  and  _172
REMARK   66  A    between atoms: _172  and  _173
REMARK   67  A    between atoms: _172  and  _175
REMARK   68  A    between atoms: _175  and  _176
REMARK   69  A    between atoms: _178  and  _180
REMARK   70  A    between atoms: _180  and  _181
REMARK   71  A    between atoms: _180  and  _183
REMARK   72  A    between atoms: _183  and  _184
REMARK   73  A    between atoms: _184  and  _185
REMARK   74  A    between atoms: _187  and  _189
REMARK   75  A    between atoms: _189  and  _190
REMARK   76  A    between atoms: _192  and  _194
REMARK   77  A    between atoms: _194  and  _195
REMARK   78  A    between atoms: _194  and  _197
REMARK   79  A    between atoms: _200  and  _202
REMARK   80  A    between atoms: _202  and  _203
REMARK   81  A    between atoms: _202  and  _205
REMARK   82  A    between atoms: _205  and  _206
REMARK   83  A    between atoms: _209  and  _211
REMARK   84  A    between atoms: _211  and  _212
REMARK   85  A    between atoms: _214  and  _216
REMARK   86  A    between atoms: _216  and  _217
REMARK   87  A    between atoms: _216  and  _219
REMARK   88  A    between atoms: _219  and  _220
REMARK   89  A    between atoms: _220  and  _221
REMARK   90  A    between atoms: _221  and  CA_702
REMARK   91  A    between atoms: _223  and  _225
REMARK   92  A    between atoms: _225  and  _226
REMARK   93  A    between atoms: _228  and  _230
REMARK   94  A    between atoms: _230  and  _231
REMARK   95  A    between atoms: _230  and  _233
REMARK   96  A    between atoms: _233  and  _234
REMARK   97  A    between atoms: _236  and  _238
REMARK   98  A    between atoms: _238  and  _239
REMARK   99  A    between atoms: _238  and  _241
REMARK  100  A    between atoms: _244  and  _246
REMARK  101  A    between atoms: _246  and  _247
REMARK  102  A    between atoms: _249  and  _251
REMARK  103  A    between atoms: _251  and  _252
REMARK  104  A    between atoms: _251  and  _254
REMARK  105  A    between atoms: _254  and  _255
REMARK  106  A    between atoms: _260  and  _261
REMARK  107  A    between atoms: _263  and  _265
REMARK  108  A    between atoms: _265  and  _266
REMARK  109  A    between atoms: _265  and  _268
REMARK  110  A    between atoms: _268  and  _269
REMARK  111  A    between atoms: _272  and  _274
REMARK  112  A    between atoms: _274  and  _275
REMARK  113  A    between atoms: _274  and  _277
REMARK  114  A    between atoms: _275  and  _276
REMARK  115  A    between atoms: _275  and  _281
REMARK  116  A    between atoms: _276  and  CA_702
REMARK  117  A    between atoms: _277  and  _278
REMARK  118  A    between atoms: _278  and  _279
REMARK  119  A    between atoms: _281  and  _283
REMARK  120  A    between atoms: _283  and  _284
REMARK  121  A    between atoms: _283  and  _286
REMARK  122  A    between atoms: _286  and  _287
REMARK  123  A    between atoms: _292  and  _294
REMARK  124  A    between atoms: _294  and  _295
REMARK  125  A    between atoms: _294  and  _297
REMARK  126  A    between atoms: _297  and  _298
REMARK  127  A    between atoms: _303  and  _305
REMARK  128  A    between atoms: _305  and  _306
REMARK  129  A    between atoms: _305  and  _308
REMARK  130  A    between atoms: _308  and  _309
REMARK  131  A    between atoms: _309  and  _310
REMARK  132  A    between atoms: _315  and  _317
REMARK  133  A    between atoms: _317  and  _318
REMARK  134  A    between atoms: _317  and  _320
REMARK  135  A    between atoms: _320  and  _321
REMARK  136  A    between atoms: _323  and  _325
REMARK  137  A    between atoms: _325  and  _326
REMARK  138  A    between atoms: _325  and  _328
REMARK  139  A    between atoms: _328  and  _329
REMARK  140  A    between atoms: _339  and  _341
REMARK  141  A    between atoms: _341  and  _342
REMARK  142  A    between atoms: _344  and  _346
REMARK  143  A    between atoms: _346  and  _347
REMARK  144  A    between atoms: _350  and  _352
REMARK  145  A    between atoms: _352  and  _353
REMARK  146  A    between atoms: _352  and  _355
REMARK  147  A    between atoms: _355  and  _356
REMARK  148  A    between atoms: _359  and  _361
REMARK  149  A    between atoms: _361  and  _362
REMARK  150  A    between atoms: _361  and  _364
REMARK  151  A    between atoms: _364  and  _365
REMARK  152  A    between atoms: _368  and  _370
REMARK  153  A    between atoms: _370  and  _371
REMARK  154  A    between atoms: _370  and  _373
REMARK  155  A    between atoms: _373  and  _374
REMARK  156  A    between atoms: _379  and  _381
REMARK  157  A    between atoms: _381  and  _382
REMARK  158  A    between atoms: _381  and  _384
REMARK  159  A    between atoms: _384  and  _385
REMARK  160  A    between atoms: _391  and  _393
REMARK  161  A    between atoms: _393  and  _394
REMARK  162  A    between atoms: _393  and  _396
REMARK  163  A    between atoms: _396  and  _397
REMARK  164  A    between atoms: _397  and  _398
REMARK  165  A    between atoms: _403  and  _405
REMARK  166  A    between atoms: _405  and  _406
REMARK  167  A    between atoms: _408  and  _410
REMARK  168  A    between atoms: _410  and  _411
REMARK  169  A    between atoms: _410  and  _413
REMARK  170  A    between atoms: _413  and  _414
REMARK  171  A    between atoms: _417  and  _419
REMARK  172  A    between atoms: _419  and  _420
REMARK  173  A    between atoms: _419  and  _422
REMARK  174  A    between atoms: _422  and  _423
REMARK  175  A    between atoms: _426  and  _428
REMARK  176  A    between atoms: _428  and  _429
REMARK  177  A    between atoms: _428  and  _431
REMARK  178  A    between atoms: _431  and  _432
REMARK  179  A    between atoms: _437  and  _438
REMARK  180  A    between atoms: _440  and  _442
REMARK  181  A    between atoms: _442  and  _443
REMARK  182  A    between atoms: _442  and  _445
REMARK  183  A    between atoms: _448  and  _450
REMARK  184  A    between atoms: _450  and  _451
REMARK  185  A    between atoms: _454  and  _456
REMARK  186  A    between atoms: _456  and  _457
REMARK  187  A    between atoms: _456  and  _459
REMARK  188  A    between atoms: _459  and  _460
REMARK  189  A    between atoms: _463  and  _465
REMARK  190  A    between atoms: _465  and  _466
REMARK  191  A    between atoms: _465  and  _468
REMARK  192  A    between atoms: _468  and  _469
REMARK  193  A    between atoms: _469  and  _470
REMARK  194  A    between atoms: _473  and  _475
REMARK  195  A    between atoms: _475  and  _476
REMARK  196  A    between atoms: _475  and  _478
REMARK  197  A    between atoms: _478  and  _479
REMARK  198  A    between atoms: _479  and  _480
REMARK  199  A    between atoms: _483  and  _485
REMARK  200  A    between atoms: _485  and  _486
REMARK  201  A    between atoms: _485  and  _488
REMARK  202  A    between atoms: _488  and  _489
REMARK  203  A    between atoms: _492  and  _494
REMARK  204  A    between atoms: _494  and  _495
REMARK  205  A    between atoms: _494  and  _497
REMARK  206  A    between atoms: _497  and  _498
REMARK  207  A    between atoms: _503  and  _505
REMARK  208  A    between atoms: _505  and  _506
REMARK  209  A    between atoms: _508  and  _510
REMARK  210  A    between atoms: _510  and  _511
REMARK  211  A    between atoms: _510  and  _513
REMARK  212  A    between atoms: _513  and  _514
REMARK  213  A    between atoms: _516  and  _518
REMARK  214  A    between atoms: _518  and  _519
REMARK  215  A    between atoms: _518  and  _521
REMARK  216  A    between atoms: _521  and  _522
REMARK  217  A    between atoms: _527  and  _529
REMARK  218  A    between atoms: _529  and  _530
REMARK  219  A    between atoms: _529  and  _532
REMARK  220  A    between atoms: _532  and  _533
REMARK  221  A    between atoms: _536  and  _538
REMARK  222  A    between atoms: _538  and  _539
REMARK  223  A    between atoms: _538  and  _541
REMARK  224  A    between atoms: _541  and  _542
REMARK  225  A    between atoms: _545  and  _547
REMARK  226  A    between atoms: _547  and  _548
REMARK  227  A    between atoms: _547  and  _550
REMARK  228  A    between atoms: _550  and  _551
REMARK  229  A    between atoms: _551  and  _552
REMARK  230  A    between atoms: _552  and  _553
REMARK  231  A    between atoms: _562  and  _564
REMARK  232  A    between atoms: _564  and  _565
REMARK  233  A    between atoms: _564  and  _567
REMARK  234  A    between atoms: _567  and  _568
REMARK  235  A    between atoms: _573  and  _575
REMARK  236  A    between atoms: _575  and  _576
REMARK  237  A    between atoms: _575  and  _578
REMARK  238  A    between atoms: _578  and  _579
REMARK  239  A    between atoms: _579  and  _580
REMARK  240  A    between atoms: _583  and  _585
REMARK  241  A    between atoms: _585  and  _586
REMARK  242  A    between atoms: _589  and  _591
REMARK  243  A    between atoms: _591  and  _592
REMARK  244  A    between atoms: _591  and  _594
REMARK  245  A    between atoms: _597  and  _599
REMARK  246  A    between atoms: _599  and  _600
REMARK  247  A    between atoms: _599  and  _602
REMARK  248  A    between atoms: _602  and  _603
REMARK  249  A    between atoms: _606  and  _608
REMARK  250  A    between atoms: _608  and  _609
REMARK  251  A    between atoms: _612  and  _614
REMARK  252  A    between atoms: _614  and  _615
REMARK  253  A    between atoms: _617  and  _619
REMARK  254  A    between atoms: _619  and  _620
REMARK  255  A    between atoms: _622  and  _624
REMARK  256  A    between atoms: _624  and  _625
REMARK  257  A    between atoms: _627  and  _629
REMARK  258  A    between atoms: _629  and  _630
REMARK  259  A    between atoms: _629  and  _632
REMARK  260  A    between atoms: _632  and  _633
REMARK  261  A    between atoms: _639  and  _641
REMARK  262  A    between atoms: _641  and  _642
REMARK  263  A    between atoms: _641  and  _644
REMARK  264  A    between atoms: _644  and  _645
REMARK  265  A    between atoms: _648  and  _650
REMARK  266  A    between atoms: _650  and  _651
REMARK  267  A    between atoms: _650  and  _653
REMARK  268  A    between atoms: _653  and  _654
REMARK  269  A    between atoms: _659  and  _661
REMARK  270  A    between atoms: _661  and  _662
REMARK  271  A    between atoms: _665  and  _667
REMARK  272  A    between atoms: _667  and  _668
REMARK  273  A    between atoms: _667  and  _670
REMARK  274  A    between atoms: _670  and  _671
REMARK  275  A    between atoms: _674  and  _676
REMARK  276  A    between atoms: _676  and  _677
REMARK  277  A    between atoms: _676  and  _679
REMARK  278  A    between atoms: _679  and  _680
REMARK  279  A    between atoms: _680  and  _681
REMARK  280  A    between atoms: _686  and  _688
REMARK  281  A    between atoms: _688  and  _689
REMARK  282  A    between atoms: _688  and  _691
REMARK  283  A    between atoms: _691  and  _692
REMARK                            x       y       z     vdW  Elec       q    Type
REMARK                         _______ _______ _______ _____ _____    ______ ____
ROOT
ATOM      1  O   HOH     1      -0.023 -57.682 -27.198  0.00  0.00    +0.000 OA
ENDROOT
TORSDOF 0
REMARK  Name = ../refined-set-2016/3iae/3iae_pocket.pdb
REMARK  283 active torsions:
REMARK  status: ('A' for Active; 'I' for Inactive)
REMARK    1  A    between atoms: _1  and  _3
REMARK    2  A    between atoms: _3  and  _4
REMARK    3  A    between atoms: _3  and  _6
REMARK    4  A    between atoms: _6  and  _7
REMARK    5  A    between atoms: _10  and  _12
REMARK    6  A    between atoms: _12  and  _13
REMARK    7  A    between atoms: _12  and  _15
REMARK    8  A    between atoms: _15  and  _16
REMARK    9  A    between atoms: _21  and  _22
REMARK   10  A    between atoms: _24  and  _26
REMARK   11  A    between atoms: _26  and  _27
REMARK   12  A    between atoms: _26  and  _29
REMARK   13  A    between atoms: _29  and  _30
REMARK   14  A    between atoms: _34  and  _35
REMARK   15  A    between atoms: _40  and  _42
REMARK   16  A    between atoms: _42  and  _43
REMARK   17  A    between atoms: _42  and  _45
REMARK   18  A    between atoms: _45  and  _46
REMARK   19  A    between atoms: _49  and  _51
REMARK   20  A    between atoms: _51  and  _52
REMARK   21  A    between atoms: _54  and  _56
REMARK   22  A    between atoms: _56  and  _57
REMARK   23  A    between atoms: _60  and  _62
REMARK   24  A    between atoms: _62  and  _63
REMARK   25  A    between atoms: _62  and  _65
REMARK   26  A    between atoms: _65  and  _66
REMARK   27  A    between atoms: _69  and  _71
REMARK   28  A    between atoms: _71  and  _72
REMARK   29  A    between atoms: _71  and  _74
REMARK   30  A    between atoms: _74  and  _75
REMARK   31  A    between atoms: _78  and  _80
REMARK   32  A    between atoms: _80  and  _81
REMARK   33  A    between atoms: _80  and  _83
REMARK   34  A    between atoms: _83  and  _84
REMARK   35  A    between atoms: _89  and  _90
REMARK   36  A    between atoms: _92  and  _94
REMARK   37  A    between atoms: _94  and  _95
REMARK   38  A    between atoms: _94  and  _97
REMARK   39  A    between atoms: _97  and  _98
REMARK   40  A    between atoms: _101  and  _103
REMARK   41  A    between atoms: _103  and  _104
REMARK   42  A    between atoms: _103  and  _106
REMARK   43  A    between atoms: _106  and  _107
REMARK   44  A    between atoms: _117  and  _119
REMARK   45  A    between atoms: _119  and  _120
REMARK   46  A    between atoms: _119  and  _122
REMARK   47  A    between atoms: _122  and  _123
REMARK   48  A    between atoms: _126  and  _128
REMARK   49  A    between atoms: _128  and  _129
REMARK   50  A    between atoms: _128  and  _131
REMARK   51  A    between atoms: _131  and  _132
REMARK   52  A    between atoms: _137  and  _139
REMARK   53  A    between atoms: _139  and  _140
REMARK   54  A    between atoms: _142  and  _144
REMARK   55  A    between atoms: _144  and  _145
REMARK   56  A    between atoms: _144  and  _147
REMARK   57  A    between atoms: _147  and  _148
REMARK   58  A    between atoms: _153  and  _154
REMARK   59  A    between atoms: _156  and  _158
REMARK   60  A    between atoms: _158  and  _159
REMARK   61  A    between atoms: _158  and  _161
REMARK   62  A    between atoms: _161  and  _162
REMARK   63  A    between atoms: _165  and  _167
REMARK   64  A    between atoms: _167  and  _168
REMARK   65  A    between atoms: _170  and  _172
REMARK   66  A    between atoms: _172  and  _173
REMARK   67  A    between atoms: _172  and  _175
REMARK   68  A    between atoms: _175  and  _176
REMARK   69  A    between atoms: _178  and  _180
REMARK   70  A    between atoms: _180  and  _181
REMARK   71  A    between atoms: _180  and  _183
REMARK   72  A    between atoms: _183  and  _184
REMARK   73  A    between atoms: _184  and  _185
REMARK   74  A    between atoms: _187  and  _189
REMARK   75  A    between atoms: _189  and  _190
REMARK   76  A    between atoms: _192  and  _194
REMARK   77  A    between atoms: _194  and  _195
REMARK   78  A    between atoms: _194  and  _197
REMARK   79  A    between atoms: _200  and  _202
REMARK   80  A    between atoms: _202  and  _203
REMARK   81  A    between atoms: _202  and  _205
REMARK   82  A    between atoms: _205  and  _206
REMARK   83  A    between atoms: _209  and  _211
REMARK   84  A    between atoms: _211  and  _212
REMARK   85  A    between atoms: _214  and  _216
REMARK   86  A    between atoms: _216  and  _217
REMARK   87  A    between atoms: _216  and  _219
REMARK   88  A    between atoms: _219  and  _220
REMARK   89  A    between atoms: _220  and  _221
REMARK   90  A    between atoms: _221  and  CA_702
REMARK   91  A    between atoms: _223  and  _225
REMARK   92  A    between atoms: _225  and  _226
REMARK   93  A    between atoms: _228  and  _230
REMARK   94  A    between atoms: _230  and  _231
REMARK   95  A    between atoms: _230  and  _233
REMARK   96  A    between atoms: _233  and  _234
REMARK   97  A    between atoms: _236  and  _238
REMARK   98  A    between atoms: _238  and  _239
REMARK   99  A    between atoms: _238  and  _241
REMARK  100  A    between atoms: _244  and  _246
REMARK  101  A    between atoms: _246  and  _247
REMARK  102  A    between atoms: _249  and  _251
REMARK  103  A    between atoms: _251  and  _252
REMARK  104  A    between atoms: _251  and  _254
REMARK  105  A    between atoms: _254  and  _255
REMARK  106  A    between atoms: _260  and  _261
REMARK  107  A    between atoms: _263  and  _265
REMARK  108  A    between atoms: _265  and  _266
REMARK  109  A    between atoms: _265  and  _268
REMARK  110  A    between atoms: _268  and  _269
REMARK  111  A    between atoms: _272  and  _274
REMARK  112  A    between atoms: _274  and  _275
REMARK  113  A    between atoms: _274  and  _277
REMARK  114  A    between atoms: _275  and  _276
REMARK  115  A    between atoms: _275  and  _281
REMARK  116  A    between atoms: _276  and  CA_702
REMARK  117  A    between atoms: _277  and  _278
REMARK  118  A    between atoms: _278  and  _279
REMARK  119  A    between atoms: _281  and  _283
REMARK  120  A    between atoms: _283  and  _284
REMARK  121  A    between atoms: _283  and  _286
REMARK  122  A    between atoms: _286  and  _287
REMARK  123  A    between atoms: _292  and  _294
REMARK  124  A    between atoms: _294  and  _295
REMARK  125  A    between atoms: _294  and  _297
REMARK  126  A    between atoms: _297  and  _298
REMARK  127  A    between atoms: _303  and  _305
REMARK  128  A    between atoms: _305  and  _306
REMARK  129  A    between atoms: _305  and  _308
REMARK  130  A    between atoms: _308  and  _309
REMARK  131  A    between atoms: _309  and  _310
REMARK  132  A    between atoms: _315  and  _317
REMARK  133  A    between atoms: _317  and  _318
REMARK  134  A    between atoms: _317  and  _320
REMARK  135  A    between atoms: _320  and  _321
REMARK  136  A    between atoms: _323  and  _325
REMARK  137  A    between atoms: _325  and  _326
REMARK  138  A    between atoms: _325  and  _328
REMARK  139  A    between atoms: _328  and  _329
REMARK  140  A    between atoms: _339  and  _341
REMARK  141  A    between atoms: _341  and  _342
REMARK  142  A    between atoms: _344  and  _346
REMARK  143  A    between atoms: _346  and  _347
REMARK  144  A    between atoms: _350  and  _352
REMARK  145  A    between atoms: _352  and  _353
REMARK  146  A    between atoms: _352  and  _355
REMARK  147  A    between atoms: _355  and  _356
REMARK  148  A    between atoms: _359  and  _361
REMARK  149  A    between atoms: _361  and  _362
REMARK  150  A    between atoms: _361  and  _364
REMARK  151  A    between atoms: _364  and  _365
REMARK  152  A    between atoms: _368  and  _370
REMARK  153  A    between atoms: _370  and  _371
REMARK  154  A    between atoms: _370  and  _373
REMARK  155  A    between atoms: _373  and  _374
REMARK  156  A    between atoms: _379  and  _381
REMARK  157  A    between atoms: _381  and  _382
REMARK  158  A    between atoms: _381  and  _384
REMARK  159  A    between atoms: _384  and  _385
REMARK  160  A    between atoms: _391  and  _393
REMARK  161  A    between atoms: _393  and  _394
REMARK  162  A    between atoms: _393  and  _396
REMARK  163  A    between atoms: _396  and  _397
REMARK  164  A    between atoms: _397  and  _398
REMARK  165  A    between atoms: _403  and  _405
REMARK  166  A    between atoms: _405  and  _406
REMARK  167  A    between atoms: _408  and  _410
REMARK  168  A    between atoms: _410  and  _411
REMARK  169  A    between atoms: _410  and  _413
REMARK  170  A    between atoms: _413  and  _414
REMARK  171  A    between atoms: _417  and  _419
REMARK  172  A    between atoms: _419  and  _420
REMARK  173  A    between atoms: _419  and  _422
REMARK  174  A    between atoms: _422  and  _423
REMARK  175  A    between atoms: _426  and  _428
REMARK  176  A    between atoms: _428  and  _429
REMARK  177  A    between atoms: _428  and  _431
REMARK  178  A    between atoms: _431  and  _432
REMARK  179  A    between atoms: _437  and  _438
REMARK  180  A    between atoms: _440  and  _442
REMARK  181  A    between atoms: _442  and  _443
REMARK  182  A    between atoms: _442  and  _445
REMARK  183  A    between atoms: _448  and  _450
REMARK  184  A    between atoms: _450  and  _451
REMARK  185  A    between atoms: _454  and  _456
REMARK  186  A    between atoms: _456  and  _457
REMARK  187  A    between atoms: _456  and  _459
REMARK  188  A    between atoms: _459  and  _460
REMARK  189  A    between atoms: _463  and  _465
REMARK  190  A    between atoms: _465  and  _466
REMARK  191  A    between atoms: _465  and  _468
REMARK  192  A    between atoms: _468  and  _469
REMARK  193  A    between atoms: _469  and  _470
REMARK  194  A    between atoms: _473  and  _475
REMARK  195  A    between atoms: _475  and  _476
REMARK  196  A    between atoms: _475  and  _478
REMARK  197  A    between atoms: _478  and  _479
REMARK  198  A    between atoms: _479  and  _480
REMARK  199  A    between atoms: _483  and  _485
REMARK  200  A    between atoms: _485  and  _486
REMARK  201  A    between atoms: _485  and  _488
REMARK  202  A    between atoms: _488  and  _489
REMARK  203  A    between atoms: _492  and  _494
REMARK  204  A    between atoms: _494  and  _495
REMARK  205  A    between atoms: _494  and  _497
REMARK  206  A    between atoms: _497  and  _498
REMARK  207  A    between atoms: _503  and  _505
REMARK  208  A    between atoms: _505  and  _506
REMARK  209  A    between atoms: _508  and  _510
REMARK  210  A    between atoms: _510  and  _511
REMARK  211  A    between atoms: _510  and  _513
REMARK  212  A    between atoms: _513  and  _514
REMARK  213  A    between atoms: _516  and  _518
REMARK  214  A    between atoms: _518  and  _519
REMARK  215  A    between atoms: _518  and  _521
REMARK  216  A    between atoms: _521  and  _522
REMARK  217  A    between atoms: _527  and  _529
REMARK  218  A    between atoms: _529  and  _530
REMARK  219  A    between atoms: _529  and  _532
REMARK  220  A    between atoms: _532  and  _533
REMARK  221  A    between atoms: _536  and  _538
REMARK  222  A    between atoms: _538  and  _539
REMARK  223  A    between atoms: _538  and  _541
REMARK  224  A    between atoms: _541  and  _542
REMARK  225  A    between atoms: _545  and  _547
REMARK  226  A    between atoms: _547  and  _548
REMARK  227  A    between atoms: _547  and  _550
REMARK  228  A    between atoms: _550  and  _551
REMARK  229  A    between atoms: _551  and  _552
REMARK  230  A    between atoms: _552  and  _553
REMARK  231  A    between atoms: _562  and  _564
REMARK  232  A    between atoms: _564  and  _565
REMARK  233  A    between atoms: _564  and  _567
REMARK  234  A    between atoms: _567  and  _568
REMARK  235  A    between atoms: _573  and  _575
REMARK  236  A    between atoms: _575  and  _576
REMARK  237  A    between atoms: _575  and  _578
REMARK  238  A    between atoms: _578  and  _579
REMARK  239  A    between atoms: _579  and  _580
REMARK  240  A    between atoms: _583  and  _585
REMARK  241  A    between atoms: _585  and  _586
REMARK  242  A    between atoms: _589  and  _591
REMARK  243  A    between atoms: _591  and  _592
REMARK  244  A    between atoms: _591  and  _594
REMARK  245  A    between atoms: _597  and  _599
REMARK  246  A    between atoms: _599  and  _600
REMARK  247  A    between atoms: _599  and  _602
REMARK  248  A    between atoms: _602  and  _603
REMARK  249  A    between atoms: _606  and  _608
REMARK  250  A    between atoms: _608  and  _609
REMARK  251  A    between atoms: _612  and  _614
REMARK  252  A    between atoms: _614  and  _615
REMARK  253  A    between atoms: _617  and  _619
REMARK  254  A    between atoms: _619  and  _620
REMARK  255  A    between atoms: _622  and  _624
REMARK  256  A    between atoms: _624  and  _625
REMARK  257  A    between atoms: _627  and  _629
REMARK  258  A    between atoms: _629  and  _630
REMARK  259  A    between atoms: _629  and  _632
REMARK  260  A    between atoms: _632  and  _633
REMARK  261  A    between atoms: _639  and  _641
REMARK  262  A    between atoms: _641  and  _642
REMARK  263  A    between atoms: _641  and  _644
REMARK  264  A    between atoms: _644  and  _645
REMARK  265  A    between atoms: _648  and  _650
REMARK  266  A    between atoms: _650  and  _651
REMARK  267  A    between atoms: _650  and  _653
REMARK  268  A    between atoms: _653  and  _654
REMARK  269  A    between atoms: _659  and  _661
REMARK  270  A    between atoms: _661  and  _662
REMARK  271  A    between atoms: _665  and  _667
REMARK  272  A    between atoms: _667  and  _668
REMARK  273  A    between atoms: _667  and  _670
REMARK  274  A    between atoms: _670  and  _671
REMARK  275  A    between atoms: _674  and  _676
REMARK  276  A    between atoms: _676  and  _677
REMARK  277  A    between atoms: _676  and  _679
REMARK  278  A    between atoms: _679  and  _680
REMARK  279  A    between atoms: _680  and  _681
REMARK  280  A    between atoms: _686  and  _688
REMARK  281  A    between atoms: _688  and  _689
REMARK  282  A    between atoms: _688  and  _691
REMARK  283  A    between atoms: _691  and  _692
REMARK                            x       y       z     vdW  Elec       q    Type
REMARK                         _______ _______ _______ _____ _____    ______ ____
ROOT
ATOM      1  O   HOH     1       7.569 -53.592 -26.205  0.00  0.00    +0.000 OA
ENDROOT
TORSDOF 0
REMARK  Name = ../refined-set-2016/3iae/3iae_pocket.pdb
REMARK  283 active torsions:
REMARK  status: ('A' for Active; 'I' for Inactive)
REMARK    1  A    between atoms: _1  and  _3
REMARK    2  A    between atoms: _3  and  _4
REMARK    3  A    between atoms: _3  and  _6
REMARK    4  A    between atoms: _6  and  _7
REMARK    5  A    between atoms: _10  and  _12
REMARK    6  A    between atoms: _12  and  _13
REMARK    7  A    between atoms: _12  and  _15
REMARK    8  A    between atoms: _15  and  _16
REMARK    9  A    between atoms: _21  and  _22
REMARK   10  A    between atoms: _24  and  _26
REMARK   11  A    between atoms: _26  and  _27
REMARK   12  A    between atoms: _26  and  _29
REMARK   13  A    between atoms: _29  and  _30
REMARK   14  A    between atoms: _34  and  _35
REMARK   15  A    between atoms: _40  and  _42
REMARK   16  A    between atoms: _42  and  _43
REMARK   17  A    between atoms: _42  and  _45
REMARK   18  A    between atoms: _45  and  _46
REMARK   19  A    between atoms: _49  and  _51
REMARK   20  A    between atoms: _51  and  _52
REMARK   21  A    between atoms: _54  and  _56
REMARK   22  A    between atoms: _56  and  _57
REMARK   23  A    between atoms: _60  and  _62
REMARK   24  A    between atoms: _62  and  _63
REMARK   25  A    between atoms: _62  and  _65
REMARK   26  A    between atoms: _65  and  _66
REMARK   27  A    between atoms: _69  and  _71
REMARK   28  A    between atoms: _71  and  _72
REMARK   29  A    between atoms: _71  and  _74
REMARK   30  A    between atoms: _74  and  _75
REMARK   31  A    between atoms: _78  and  _80
REMARK   32  A    between atoms: _80  and  _81
REMARK   33  A    between atoms: _80  and  _83
REMARK   34  A    between atoms: _83  and  _84
REMARK   35  A    between atoms: _89  and  _90
REMARK   36  A    between atoms: _92  and  _94
REMARK   37  A    between atoms: _94  and  _95
REMARK   38  A    between atoms: _94  and  _97
REMARK   39  A    between atoms: _97  and  _98
REMARK   40  A    between atoms: _101  and  _103
REMARK   41  A    between atoms: _103  and  _104
REMARK   42  A    between atoms: _103  and  _106
REMARK   43  A    between atoms: _106  and  _107
REMARK   44  A    between atoms: _117  and  _119
REMARK   45  A    between atoms: _119  and  _120
REMARK   46  A    between atoms: _119  and  _122
REMARK   47  A    between atoms: _122  and  _123
REMARK   48  A    between atoms: _126  and  _128
REMARK   49  A    between atoms: _128  and  _129
REMARK   50  A    between atoms: _128  and  _131
REMARK   51  A    between atoms: _131  and  _132
REMARK   52  A    between atoms: _137  and  _139
REMARK   53  A    between atoms: _139  and  _140
REMARK   54  A    between atoms: _142  and  _144
REMARK   55  A    between atoms: _144  and  _145
REMARK   56  A    between atoms: _144  and  _147
REMARK   57  A    between atoms: _147  and  _148
REMARK   58  A    between atoms: _153  and  _154
REMARK   59  A    between atoms: _156  and  _158
REMARK   60  A    between atoms: _158  and  _159
REMARK   61  A    between atoms: _158  and  _161
REMARK   62  A    between atoms: _161  and  _162
REMARK   63  A    between atoms: _165  and  _167
REMARK   64  A    between atoms: _167  and  _168
REMARK   65  A    between atoms: _170  and  _172
REMARK   66  A    between atoms: _172  and  _173
REMARK   67  A    between atoms: _172  and  _175
REMARK   68  A    between atoms: _175  and  _176
REMARK   69  A    between atoms: _178  and  _180
REMARK   70  A    between atoms: _180  and  _181
REMARK   71  A    between atoms: _180  and  _183
REMARK   72  A    between atoms: _183  and  _184
REMARK   73  A    between atoms: _184  and  _185
REMARK   74  A    between atoms: _187  and  _189
REMARK   75  A    between atoms: _189  and  _190
REMARK   76  A    between atoms: _192  and  _194
REMARK   77  A    between atoms: _194  and  _195
REMARK   78  A    between atoms: _194  and  _197
REMARK   79  A    between atoms: _200  and  _202
REMARK   80  A    between atoms: _202  and  _203
REMARK   81  A    between atoms: _202  and  _205
REMARK   82  A    between atoms: _205  and  _206
REMARK   83  A    between atoms: _209  and  _211
REMARK   84  A    between atoms: _211  and  _212
REMARK   85  A    between atoms: _214  and  _216
REMARK   86  A    between atoms: _216  and  _217
REMARK   87  A    between atoms: _216  and  _219
REMARK   88  A    between atoms: _219  and  _220
REMARK   89  A    between atoms: _220  and  _221
REMARK   90  A    between atoms: _221  and  CA_702
REMARK   91  A    between atoms: _223  and  _225
REMARK   92  A    between atoms: _225  and  _226
REMARK   93  A    between atoms: _228  and  _230
REMARK   94  A    between atoms: _230  and  _231
REMARK   95  A    between atoms: _230  and  _233
REMARK   96  A    between atoms: _233  and  _234
REMARK   97  A    between atoms: _236  and  _238
REMARK   98  A    between atoms: _238  and  _239
REMARK   99  A    between atoms: _238  and  _241
REMARK  100  A    between atoms: _244  and  _246
REMARK  101  A    between atoms: _246  and  _247
REMARK  102  A    between atoms: _249  and  _251
REMARK  103  A    between atoms: _251  and  _252
REMARK  104  A    between atoms: _251  and  _254
REMARK  105  A    between atoms: _254  and  _255
REMARK  106  A    between atoms: _260  and  _261
REMARK  107  A    between atoms: _263  and  _265
REMARK  108  A    between atoms: _265  and  _266
REMARK  109  A    between atoms: _265  and  _268
REMARK  110  A    between atoms: _268  and  _269
REMARK  111  A    between atoms: _272  and  _274
REMARK  112  A    between atoms: _274  and  _275
REMARK  113  A    between atoms: _274  and  _277
REMARK  114  A    between atoms: _275  and  _276
REMARK  115  A    between atoms: _275  and  _281
REMARK  116  A    between atoms: _276  and  CA_702
REMARK  117  A    between atoms: _277  and  _278
REMARK  118  A    between atoms: _278  and  _279
REMARK  119  A    between atoms: _281  and  _283
REMARK  120  A    between atoms: _283  and  _284
REMARK  121  A    between atoms: _283  and  _286
REMARK  122  A    between atoms: _286  and  _287
REMARK  123  A    between atoms: _292  and  _294
REMARK  124  A    between atoms: _294  and  _295
REMARK  125  A    between atoms: _294  and  _297
REMARK  126  A    between atoms: _297  and  _298
REMARK  127  A    between atoms: _303  and  _305
REMARK  128  A    between atoms: _305  and  _306
REMARK  129  A    between atoms: _305  and  _308
REMARK  130  A    between atoms: _308  and  _309
REMARK  131  A    between atoms: _309  and  _310
REMARK  132  A    between atoms: _315  and  _317
REMARK  133  A    between atoms: _317  and  _318
REMARK  134  A    between atoms: _317  and  _320
REMARK  135  A    between atoms: _320  and  _321
REMARK  136  A    between atoms: _323  and  _325
REMARK  137  A    between atoms: _325  and  _326
REMARK  138  A    between atoms: _325  and  _328
REMARK  139  A    between atoms: _328  and  _329
REMARK  140  A    between atoms: _339  and  _341
REMARK  141  A    between atoms: _341  and  _342
REMARK  142  A    between atoms: _344  and  _346
REMARK  143  A    between atoms: _346  and  _347
REMARK  144  A    between atoms: _350  and  _352
REMARK  145  A    between atoms: _352  and  _353
REMARK  146  A    between atoms: _352  and  _355
REMARK  147  A    between atoms: _355  and  _356
REMARK  148  A    between atoms: _359  and  _361
REMARK  149  A    between atoms: _361  and  _362
REMARK  150  A    between atoms: _361  and  _364
REMARK  151  A    between atoms: _364  and  _365
REMARK  152  A    between atoms: _368  and  _370
REMARK  153  A    between atoms: _370  and  _371
REMARK  154  A    between atoms: _370  and  _373
REMARK  155  A    between atoms: _373  and  _374
REMARK  156  A    between atoms: _379  and  _381
REMARK  157  A    between atoms: _381  and  _382
REMARK  158  A    between atoms: _381  and  _384
REMARK  159  A    between atoms: _384  and  _385
REMARK  160  A    between atoms: _391  and  _393
REMARK  161  A    between atoms: _393  and  _394
REMARK  162  A    between atoms: _393  and  _396
REMARK  163  A    between atoms: _396  and  _397
REMARK  164  A    between atoms: _397  and  _398
REMARK  165  A    between atoms: _403  and  _405
REMARK  166  A    between atoms: _405  and  _406
REMARK  167  A    between atoms: _408  and  _410
REMARK  168  A    between atoms: _410  and  _411
REMARK  169  A    between atoms: _410  and  _413
REMARK  170  A    between atoms: _413  and  _414
REMARK  171  A    between atoms: _417  and  _419
REMARK  172  A    between atoms: _419  and  _420
REMARK  173  A    between atoms: _419  and  _422
REMARK  174  A    between atoms: _422  and  _423
REMARK  175  A    between atoms: _426  and  _428
REMARK  176  A    between atoms: _428  and  _429
REMARK  177  A    between atoms: _428  and  _431
REMARK  178  A    between atoms: _431  and  _432
REMARK  179  A    between atoms: _437  and  _438
REMARK  180  A    between atoms: _440  and  _442
REMARK  181  A    between atoms: _442  and  _443
REMARK  182  A    between atoms: _442  and  _445
REMARK  183  A    between atoms: _448  and  _450
REMARK  184  A    between atoms: _450  and  _451
REMARK  185  A    between atoms: _454  and  _456
REMARK  186  A    between atoms: _456  and  _457
REMARK  187  A    between atoms: _456  and  _459
REMARK  188  A    between atoms: _459  and  _460
REMARK  189  A    between atoms: _463  and  _465
REMARK  190  A    between atoms: _465  and  _466
REMARK  191  A    between atoms: _465  and  _468
REMARK  192  A    between atoms: _468  and  _469
REMARK  193  A    between atoms: _469  and  _470
REMARK  194  A    between atoms: _473  and  _475
REMARK  195  A    between atoms: _475  and  _476
REMARK  196  A    between atoms: _475  and  _478
REMARK  197  A    between atoms: _478  and  _479
REMARK  198  A    between atoms: _479  and  _480
REMARK  199  A    between atoms: _483  and  _485
REMARK  200  A    between atoms: _485  and  _486
REMARK  201  A    between atoms: _485  and  _488
REMARK  202  A    between atoms: _488  and  _489
REMARK  203  A    between atoms: _492  and  _494
REMARK  204  A    between atoms: _494  and  _495
REMARK  205  A    between atoms: _494  and  _497
REMARK  206  A    between atoms: _497  and  _498
REMARK  207  A    between atoms: _503  and  _505
REMARK  208  A    between atoms: _505  and  _506
REMARK  209  A    between atoms: _508  and  _510
REMARK  210  A    between atoms: _510  and  _511
REMARK  211  A    between atoms: _510  and  _513
REMARK  212  A    between atoms: _513  and  _514
REMARK  213  A    between atoms: _516  and  _518
REMARK  214  A    between atoms: _518  and  _519
REMARK  215  A    between atoms: _518  and  _521
REMARK  216  A    between atoms: _521  and  _522
REMARK  217  A    between atoms: _527  and  _529
REMARK  218  A    between atoms: _529  and  _530
REMARK  219  A    between atoms: _529  and  _532
REMARK  220  A    between atoms: _532  and  _533
REMARK  221  A    between atoms: _536  and  _538
REMARK  222  A    between atoms: _538  and  _539
REMARK  223  A    between atoms: _538  and  _541
REMARK  224  A    between atoms: _541  and  _542
REMARK  225  A    between atoms: _545  and  _547
REMARK  226  A    between atoms: _547  and  _548
REMARK  227  A    between atoms: _547  and  _550
REMARK  228  A    between atoms: _550  and  _551
REMARK  229  A    between atoms: _551  and  _552
REMARK  230  A    between atoms: _552  and  _553
REMARK  231  A    between atoms: _562  and  _564
REMARK  232  A    between atoms: _564  and  _565
REMARK  233  A    between atoms: _564  and  _567
REMARK  234  A    between atoms: _567  and  _568
REMARK  235  A    between atoms: _573  and  _575
REMARK  236  A    between atoms: _575  and  _576
REMARK  237  A    between atoms: _575  and  _578
REMARK  238  A    between atoms: _578  and  _579
REMARK  239  A    between atoms: _579  and  _580
REMARK  240  A    between atoms: _583  and  _585
REMARK  241  A    between atoms: _585  and  _586
REMARK  242  A    between atoms: _589  and  _591
REMARK  243  A    between atoms: _591  and  _592
REMARK  244  A    between atoms: _591  and  _594
REMARK  245  A    between atoms: _597  and  _599
REMARK  246  A    between atoms: _599  and  _600
REMARK  247  A    between atoms: _599  and  _602
REMARK  248  A    between atoms: _602  and  _603
REMARK  249  A    between atoms: _606  and  _608
REMARK  250  A    between atoms: _608  and  _609
REMARK  251  A    between atoms: _612  and  _614
REMARK  252  A    between atoms: _614  and  _615
REMARK  253  A    between atoms: _617  and  _619
REMARK  254  A    between atoms: _619  and  _620
REMARK  255  A    between atoms: _622  and  _624
REMARK  256  A    between atoms: _624  and  _625
REMARK  257  A    between atoms: _627  and  _629
REMARK  258  A    between atoms: _629  and  _630
REMARK  259  A    between atoms: _629  and  _632
REMARK  260  A    between atoms: _632  and  _633
REMARK  261  A    between atoms: _639  and  _641
REMARK  262  A    between atoms: _641  and  _642
REMARK  263  A    between atoms: _641  and  _644
REMARK  264  A    between atoms: _644  and  _645
REMARK  265  A    between atoms: _648  and  _650
REMARK  266  A    between atoms: _650  and  _651
REMARK  267  A    between atoms: _650  and  _653
REMARK  268  A    between atoms: _653  and  _654
REMARK  269  A    between atoms: _659  and  _661
REMARK  270  A    between atoms: _661  and  _662
REMARK  271  A    between atoms: _665  and  _667
REMARK  272  A    between atoms: _667  and  _668
REMARK  273  A    between atoms: _667  and  _670
REMARK  274  A    between atoms: _670  and  _671
REMARK  275  A    between atoms: _674  and  _676
REMARK  276  A    between atoms: _676  and  _677
REMARK  277  A    between atoms: _676  and  _679
REMARK  278  A    between atoms: _679  and  _680
REMARK  279  A    between atoms: _680  and  _681
REMARK  280  A    between atoms: _686  and  _688
REMARK  281  A    between atoms: _688  and  _689
REMARK  282  A    between atoms: _688  and  _691
REMARK  283  A    between atoms: _691  and  _692
REMARK                            x       y       z     vdW  Elec       q    Type
REMARK                         _______ _______ _______ _____ _____    ______ ____
ROOT
ATOM      1  O   HOH     1      -4.767 -52.408 -37.709  0.00  0.00    +0.000 OA
ENDROOT
TORSDOF 0
REMARK  Name = ../refined-set-2016/3iae/3iae_pocket.pdb
REMARK  283 active torsions:
REMARK  status: ('A' for Active; 'I' for Inactive)
REMARK    1  A    between atoms: _1  and  _3
REMARK    2  A    between atoms: _3  and  _4
REMARK    3  A    between atoms: _3  and  _6
REMARK    4  A    between atoms: _6  and  _7
REMARK    5  A    between atoms: _10  and  _12
REMARK    6  A    between atoms: _12  and  _13
REMARK    7  A    between atoms: _12  and  _15
REMARK    8  A    between atoms: _15  and  _16
REMARK    9  A    between atoms: _21  and  _22
REMARK   10  A    between atoms: _24  and  _26
REMARK   11  A    between atoms: _26  and  _27
REMARK   12  A    between atoms: _26  and  _29
REMARK   13  A    between atoms: _29  and  _30
REMARK   14  A    between atoms: _34  and  _35
REMARK   15  A    between atoms: _40  and  _42
REMARK   16  A    between atoms: _42  and  _43
REMARK   17  A    between atoms: _42  and  _45
REMARK   18  A    between atoms: _45  and  _46
REMARK   19  A    between atoms: _49  and  _51
REMARK   20  A    between atoms: _51  and  _52
REMARK   21  A    between atoms: _54  and  _56
REMARK   22  A    between atoms: _56  and  _57
REMARK   23  A    between atoms: _60  and  _62
REMARK   24  A    between atoms: _62  and  _63
REMARK   25  A    between atoms: _62  and  _65
REMARK   26  A    between atoms: _65  and  _66
REMARK   27  A    between atoms: _69  and  _71
REMARK   28  A    between atoms: _71  and  _72
REMARK   29  A    between atoms: _71  and  _74
REMARK   30  A    between atoms: _74  and  _75
REMARK   31  A    between atoms: _78  and  _80
REMARK   32  A    between atoms: _80  and  _81
REMARK   33  A    between atoms: _80  and  _83
REMARK   34  A    between atoms: _83  and  _84
REMARK   35  A    between atoms: _89  and  _90
REMARK   36  A    between atoms: _92  and  _94
REMARK   37  A    between atoms: _94  and  _95
REMARK   38  A    between atoms: _94  and  _97
REMARK   39  A    between atoms: _97  and  _98
REMARK   40  A    between atoms: _101  and  _103
REMARK   41  A    between atoms: _103  and  _104
REMARK   42  A    between atoms: _103  and  _106
REMARK   43  A    between atoms: _106  and  _107
REMARK   44  A    between atoms: _117  and  _119
REMARK   45  A    between atoms: _119  and  _120
REMARK   46  A    between atoms: _119  and  _122
REMARK   47  A    between atoms: _122  and  _123
REMARK   48  A    between atoms: _126  and  _128
REMARK   49  A    between atoms: _128  and  _129
REMARK   50  A    between atoms: _128  and  _131
REMARK   51  A    between atoms: _131  and  _132
REMARK   52  A    between atoms: _137  and  _139
REMARK   53  A    between atoms: _139  and  _140
REMARK   54  A    between atoms: _142  and  _144
REMARK   55  A    between atoms: _144  and  _145
REMARK   56  A    between atoms: _144  and  _147
REMARK   57  A    between atoms: _147  and  _148
REMARK   58  A    between atoms: _153  and  _154
REMARK   59  A    between atoms: _156  and  _158
REMARK   60  A    between atoms: _158  and  _159
REMARK   61  A    between atoms: _158  and  _161
REMARK   62  A    between atoms: _161  and  _162
REMARK   63  A    between atoms: _165  and  _167
REMARK   64  A    between atoms: _167  and  _168
REMARK   65  A    between atoms: _170  and  _172
REMARK   66  A    between atoms: _172  and  _173
REMARK   67  A    between atoms: _172  and  _175
REMARK   68  A    between atoms: _175  and  _176
REMARK   69  A    between atoms: _178  and  _180
REMARK   70  A    between atoms: _180  and  _181
REMARK   71  A    between atoms: _180  and  _183
REMARK   72  A    between atoms: _183  and  _184
REMARK   73  A    between atoms: _184  and  _185
REMARK   74  A    between atoms: _187  and  _189
REMARK   75  A    between atoms: _189  and  _190
REMARK   76  A    between atoms: _192  and  _194
REMARK   77  A    between atoms: _194  and  _195
REMARK   78  A    between atoms: _194  and  _197
REMARK   79  A    between atoms: _200  and  _202
REMARK   80  A    between atoms: _202  and  _203
REMARK   81  A    between atoms: _202  and  _205
REMARK   82  A    between atoms: _205  and  _206
REMARK   83  A    between atoms: _209  and  _211
REMARK   84  A    between atoms: _211  and  _212
REMARK   85  A    between atoms: _214  and  _216
REMARK   86  A    between atoms: _216  and  _217
REMARK   87  A    between atoms: _216  and  _219
REMARK   88  A    between atoms: _219  and  _220
REMARK   89  A    between atoms: _220  and  _221
REMARK   90  A    between atoms: _221  and  CA_702
REMARK   91  A    between atoms: _223  and  _225
REMARK   92  A    between atoms: _225  and  _226
REMARK   93  A    between atoms: _228  and  _230
REMARK   94  A    between atoms: _230  and  _231
REMARK   95  A    between atoms: _230  and  _233
REMARK   96  A    between atoms: _233  and  _234
REMARK   97  A    between atoms: _236  and  _238
REMARK   98  A    between atoms: _238  and  _239
REMARK   99  A    between atoms: _238  and  _241
REMARK  100  A    between atoms: _244  and  _246
REMARK  101  A    between atoms: _246  and  _247
REMARK  102  A    between atoms: _249  and  _251
REMARK  103  A    between atoms: _251  and  _252
REMARK  104  A    between atoms: _251  and  _254
REMARK  105  A    between atoms: _254  and  _255
REMARK  106  A    between atoms: _260  and  _261
REMARK  107  A    between atoms: _263  and  _265
REMARK  108  A    between atoms: _265  and  _266
REMARK  109  A    between atoms: _265  and  _268
REMARK  110  A    between atoms: _268  and  _269
REMARK  111  A    between atoms: _272  and  _274
REMARK  112  A    between atoms: _274  and  _275
REMARK  113  A    between atoms: _274  and  _277
REMARK  114  A    between atoms: _275  and  _276
REMARK  115  A    between atoms: _275  and  _281
REMARK  116  A    between atoms: _276  and  CA_702
REMARK  117  A    between atoms: _277  and  _278
REMARK  118  A    between atoms: _278  and  _279
REMARK  119  A    between atoms: _281  and  _283
REMARK  120  A    between atoms: _283  and  _284
REMARK  121  A    between atoms: _283  and  _286
REMARK  122  A    between atoms: _286  and  _287
REMARK  123  A    between atoms: _292  and  _294
REMARK  124  A    between atoms: _294  and  _295
REMARK  125  A    between atoms: _294  and  _297
REMARK  126  A    between atoms: _297  and  _298
REMARK  127  A    between atoms: _303  and  _305
REMARK  128  A    between atoms: _305  and  _306
REMARK  129  A    between atoms: _305  and  _308
REMARK  130  A    between atoms: _308  and  _309
REMARK  131  A    between atoms: _309  and  _310
REMARK  132  A    between atoms: _315  and  _317
REMARK  133  A    between atoms: _317  and  _318
REMARK  134  A    between atoms: _317  and  _320
REMARK  135  A    between atoms: _320  and  _321
REMARK  136  A    between atoms: _323  and  _325
REMARK  137  A    between atoms: _325  and  _326
REMARK  138  A    between atoms: _325  and  _328
REMARK  139  A    between atoms: _328  and  _329
REMARK  140  A    between atoms: _339  and  _341
REMARK  141  A    between atoms: _341  and  _342
REMARK  142  A    between atoms: _344  and  _346
REMARK  143  A    between atoms: _346  and  _347
REMARK  144  A    between atoms: _350  and  _352
REMARK  145  A    between atoms: _352  and  _353
REMARK  146  A    between atoms: _352  and  _355
REMARK  147  A    between atoms: _355  and  _356
REMARK  148  A    between atoms: _359  and  _361
REMARK  149  A    between atoms: _361  and  _362
REMARK  150  A    between atoms: _361  and  _364
REMARK  151  A    between atoms: _364  and  _365
REMARK  152  A    between atoms: _368  and  _370
REMARK  153  A    between atoms: _370  and  _371
REMARK  154  A    between atoms: _370  and  _373
REMARK  155  A    between atoms: _373  and  _374
REMARK  156  A    between atoms: _379  and  _381
REMARK  157  A    between atoms: _381  and  _382
REMARK  158  A    between atoms: _381  and  _384
REMARK  159  A    between atoms: _384  and  _385
REMARK  160  A    between atoms: _391  and  _393
REMARK  161  A    between atoms: _393  and  _394
REMARK  162  A    between atoms: _393  and  _396
REMARK  163  A    between atoms: _396  and  _397
REMARK  164  A    between atoms: _397  and  _398
REMARK  165  A    between atoms: _403  and  _405
REMARK  166  A    between atoms: _405  and  _406
REMARK  167  A    between atoms: _408  and  _410
REMARK  168  A    between atoms: _410  and  _411
REMARK  169  A    between atoms: _410  and  _413
REMARK  170  A    between atoms: _413  and  _414
REMARK  171  A    between atoms: _417  and  _419
REMARK  172  A    between atoms: _419  and  _420
REMARK  173  A    between atoms: _419  and  _422
REMARK  174  A    between atoms: _422  and  _423
REMARK  175  A    between atoms: _426  and  _428
REMARK  176  A    between atoms: _428  and  _429
REMARK  177  A    between atoms: _428  and  _431
REMARK  178  A    between atoms: _431  and  _432
REMARK  179  A    between atoms: _437  and  _438
REMARK  180  A    between atoms: _440  and  _442
REMARK  181  A    between atoms: _442  and  _443
REMARK  182  A    between atoms: _442  and  _445
REMARK  183  A    between atoms: _448  and  _450
REMARK  184  A    between atoms: _450  and  _451
REMARK  185  A    between atoms: _454  and  _456
REMARK  186  A    between atoms: _456  and  _457
REMARK  187  A    between atoms: _456  and  _459
REMARK  188  A    between atoms: _459  and  _460
REMARK  189  A    between atoms: _463  and  _465
REMARK  190  A    between atoms: _465  and  _466
REMARK  191  A    between atoms: _465  and  _468
REMARK  192  A    between atoms: _468  and  _469
REMARK  193  A    between atoms: _469  and  _470
REMARK  194  A    between atoms: _473  and  _475
REMARK  195  A    between atoms: _475  and  _476
REMARK  196  A    between atoms: _475  and  _478
REMARK  197  A    between atoms: _478  and  _479
REMARK  198  A    between atoms: _479  and  _480
REMARK  199  A    between atoms: _483  and  _485
REMARK  200  A    between atoms: _485  and  _486
REMARK  201  A    between atoms: _485  and  _488
REMARK  202  A    between atoms: _488  and  _489
REMARK  203  A    between atoms: _492  and  _494
REMARK  204  A    between atoms: _494  and  _495
REMARK  205  A    between atoms: _494  and  _497
REMARK  206  A    between atoms: _497  and  _498
REMARK  207  A    between atoms: _503  and  _505
REMARK  208  A    between atoms: _505  and  _506
REMARK  209  A    between atoms: _508  and  _510
REMARK  210  A    between atoms: _510  and  _511
REMARK  211  A    between atoms: _510  and  _513
REMARK  212  A    between atoms: _513  and  _514
REMARK  213  A    between atoms: _516  and  _518
REMARK  214  A    between atoms: _518  and  _519
REMARK  215  A    between atoms: _518  and  _521
REMARK  216  A    between atoms: _521  and  _522
REMARK  217  A    between atoms: _527  and  _529
REMARK  218  A    between atoms: _529  and  _530
REMARK  219  A    between atoms: _529  and  _532
REMARK  220  A    between atoms: _532  and  _533
REMARK  221  A    between atoms: _536  and  _538
REMARK  222  A    between atoms: _538  and  _539
REMARK  223  A    between atoms: _538  and  _541
REMARK  224  A    between atoms: _541  and  _542
REMARK  225  A    between atoms: _545  and  _547
REMARK  226  A    between atoms: _547  and  _548
REMARK  227  A    between atoms: _547  and  _550
REMARK  228  A    between atoms: _550  and  _551
REMARK  229  A    between atoms: _551  and  _552
REMARK  230  A    between atoms: _552  and  _553
REMARK  231  A    between atoms: _562  and  _564
REMARK  232  A    between atoms: _564  and  _565
REMARK  233  A    between atoms: _564  and  _567
REMARK  234  A    between atoms: _567  and  _568
REMARK  235  A    between atoms: _573  and  _575
REMARK  236  A    between atoms: _575  and  _576
REMARK  237  A    between atoms: _575  and  _578
REMARK  238  A    between atoms: _578  and  _579
REMARK  239  A    between atoms: _579  and  _580
REMARK  240  A    between atoms: _583  and  _585
REMARK  241  A    between atoms: _585  and  _586
REMARK  242  A    between atoms: _589  and  _591
REMARK  243  A    between atoms: _591  and  _592
REMARK  244  A    between atoms: _591  and  _594
REMARK  245  A    between atoms: _597  and  _599
REMARK  246  A    between atoms: _599  and  _600
REMARK  247  A    between atoms: _599  and  _602
REMARK  248  A    between atoms: _602  and  _603
REMARK  249  A    between atoms: _606  and  _608
REMARK  250  A    between atoms: _608  and  _609
REMARK  251  A    between atoms: _612  and  _614
REMARK  252  A    between atoms: _614  and  _615
REMARK  253  A    between atoms: _617  and  _619
REMARK  254  A    between atoms: _619  and  _620
REMARK  255  A    between atoms: _622  and  _624
REMARK  256  A    between atoms: _624  and  _625
REMARK  257  A    between atoms: _627  and  _629
REMARK  258  A    between atoms: _629  and  _630
REMARK  259  A    between atoms: _629  and  _632
REMARK  260  A    between atoms: _632  and  _633
REMARK  261  A    between atoms: _639  and  _641
REMARK  262  A    between atoms: _641  and  _642
REMARK  263  A    between atoms: _641  and  _644
REMARK  264  A    between atoms: _644  and  _645
REMARK  265  A    between atoms: _648  and  _650
REMARK  266  A    between atoms: _650  and  _651
REMARK  267  A    between atoms: _650  and  _653
REMARK  268  A    between atoms: _653  and  _654
REMARK  269  A    between atoms: _659  and  _661
REMARK  270  A    between atoms: _661  and  _662
REMARK  271  A    between atoms: _665  and  _667
REMARK  272  A    between atoms: _667  and  _668
REMARK  273  A    between atoms: _667  and  _670
REMARK  274  A    between atoms: _670  and  _671
REMARK  275  A    between atoms: _674  and  _676
REMARK  276  A    between atoms: _676  and  _677
REMARK  277  A    between atoms: _676  and  _679
REMARK  278  A    between atoms: _679  and  _680
REMARK  279  A    between atoms: _680  and  _681
REMARK  280  A    between atoms: _686  and  _688
REMARK  281  A    between atoms: _688  and  _689
REMARK  282  A    between atoms: _688  and  _691
REMARK  283  A    between atoms: _691  and  _692
REMARK                            x       y       z     vdW  Elec       q    Type
REMARK                         _______ _______ _______ _____ _____    ______ ____
ROOT
ATOM      1  O   HOH     1      10.894 -56.071 -27.512  0.00  0.00    +0.000 OA
ENDROOT
TORSDOF 0
REMARK  Name = ../refined-set-2016/3iae/3iae_pocket.pdb
REMARK  283 active torsions:
REMARK  status: ('A' for Active; 'I' for Inactive)
REMARK    1  A    between atoms: _1  and  _3
REMARK    2  A    between atoms: _3  and  _4
REMARK    3  A    between atoms: _3  and  _6
REMARK    4  A    between atoms: _6  and  _7
REMARK    5  A    between atoms: _10  and  _12
REMARK    6  A    between atoms: _12  and  _13
REMARK    7  A    between atoms: _12  and  _15
REMARK    8  A    between atoms: _15  and  _16
REMARK    9  A    between atoms: _21  and  _22
REMARK   10  A    between atoms: _24  and  _26
REMARK   11  A    between atoms: _26  and  _27
REMARK   12  A    between atoms: _26  and  _29
REMARK   13  A    between atoms: _29  and  _30
REMARK   14  A    between atoms: _34  and  _35
REMARK   15  A    between atoms: _40  and  _42
REMARK   16  A    between atoms: _42  and  _43
REMARK   17  A    between atoms: _42  and  _45
REMARK   18  A    between atoms: _45  and  _46
REMARK   19  A    between atoms: _49  and  _51
REMARK   20  A    between atoms: _51  and  _52
REMARK   21  A    between atoms: _54  and  _56
REMARK   22  A    between atoms: _56  and  _57
REMARK   23  A    between atoms: _60  and  _62
REMARK   24  A    between atoms: _62  and  _63
REMARK   25  A    between atoms: _62  and  _65
REMARK   26  A    between atoms: _65  and  _66
REMARK   27  A    between atoms: _69  and  _71
REMARK   28  A    between atoms: _71  and  _72
REMARK   29  A    between atoms: _71  and  _74
REMARK   30  A    between atoms: _74  and  _75
REMARK   31  A    between atoms: _78  and  _80
REMARK   32  A    between atoms: _80  and  _81
REMARK   33  A    between atoms: _80  and  _83
REMARK   34  A    between atoms: _83  and  _84
REMARK   35  A    between atoms: _89  and  _90
REMARK   36  A    between atoms: _92  and  _94
REMARK   37  A    between atoms: _94  and  _95
REMARK   38  A    between atoms: _94  and  _97
REMARK   39  A    between atoms: _97  and  _98
REMARK   40  A    between atoms: _101  and  _103
REMARK   41  A    between atoms: _103  and  _104
REMARK   42  A    between atoms: _103  and  _106
REMARK   43  A    between atoms: _106  and  _107
REMARK   44  A    between atoms: _117  and  _119
REMARK   45  A    between atoms: _119  and  _120
REMARK   46  A    between atoms: _119  and  _122
REMARK   47  A    between atoms: _122  and  _123
REMARK   48  A    between atoms: _126  and  _128
REMARK   49  A    between atoms: _128  and  _129
REMARK   50  A    between atoms: _128  and  _131
REMARK   51  A    between atoms: _131  and  _132
REMARK   52  A    between atoms: _137  and  _139
REMARK   53  A    between atoms: _139  and  _140
REMARK   54  A    between atoms: _142  and  _144
REMARK   55  A    between atoms: _144  and  _145
REMARK   56  A    between atoms: _144  and  _147
REMARK   57  A    between atoms: _147  and  _148
REMARK   58  A    between atoms: _153  and  _154
REMARK   59  A    between atoms: _156  and  _158
REMARK   60  A    between atoms: _158  and  _159
REMARK   61  A    between atoms: _158  and  _161
REMARK   62  A    between atoms: _161  and  _162
REMARK   63  A    between atoms: _165  and  _167
REMARK   64  A    between atoms: _167  and  _168
REMARK   65  A    between atoms: _170  and  _172
REMARK   66  A    between atoms: _172  and  _173
REMARK   67  A    between atoms: _172  and  _175
REMARK   68  A    between atoms: _175  and  _176
REMARK   69  A    between atoms: _178  and  _180
REMARK   70  A    between atoms: _180  and  _181
REMARK   71  A    between atoms: _180  and  _183
REMARK   72  A    between atoms: _183  and  _184
REMARK   73  A    between atoms: _184  and  _185
REMARK   74  A    between atoms: _187  and  _189
REMARK   75  A    between atoms: _189  and  _190
REMARK   76  A    between atoms: _192  and  _194
REMARK   77  A    between atoms: _194  and  _195
REMARK   78  A    between atoms: _194  and  _197
REMARK   79  A    between atoms: _200  and  _202
REMARK   80  A    between atoms: _202  and  _203
REMARK   81  A    between atoms: _202  and  _205
REMARK   82  A    between atoms: _205  and  _206
REMARK   83  A    between atoms: _209  and  _211
REMARK   84  A    between atoms: _211  and  _212
REMARK   85  A    between atoms: _214  and  _216
REMARK   86  A    between atoms: _216  and  _217
REMARK   87  A    between atoms: _216  and  _219
REMARK   88  A    between atoms: _219  and  _220
REMARK   89  A    between atoms: _220  and  _221
REMARK   90  A    between atoms: _221  and  CA_702
REMARK   91  A    between atoms: _223  and  _225
REMARK   92  A    between atoms: _225  and  _226
REMARK   93  A    between atoms: _228  and  _230
REMARK   94  A    between atoms: _230  and  _231
REMARK   95  A    between atoms: _230  and  _233
REMARK   96  A    between atoms: _233  and  _234
REMARK   97  A    between atoms: _236  and  _238
REMARK   98  A    between atoms: _238  and  _239
REMARK   99  A    between atoms: _238  and  _241
REMARK  100  A    between atoms: _244  and  _246
REMARK  101  A    between atoms: _246  and  _247
REMARK  102  A    between atoms: _249  and  _251
REMARK  103  A    between atoms: _251  and  _252
REMARK  104  A    between atoms: _251  and  _254
REMARK  105  A    between atoms: _254  and  _255
REMARK  106  A    between atoms: _260  and  _261
REMARK  107  A    between atoms: _263  and  _265
REMARK  108  A    between atoms: _265  and  _266
REMARK  109  A    between atoms: _265  and  _268
REMARK  110  A    between atoms: _268  and  _269
REMARK  111  A    between atoms: _272  and  _274
REMARK  112  A    between atoms: _274  and  _275
REMARK  113  A    between atoms: _274  and  _277
REMARK  114  A    between atoms: _275  and  _276
REMARK  115  A    between atoms: _275  and  _281
REMARK  116  A    between atoms: _276  and  CA_702
REMARK  117  A    between atoms: _277  and  _278
REMARK  118  A    between atoms: _278  and  _279
REMARK  119  A    between atoms: _281  and  _283
REMARK  120  A    between atoms: _283  and  _284
REMARK  121  A    between atoms: _283  and  _286
REMARK  122  A    between atoms: _286  and  _287
REMARK  123  A    between atoms: _292  and  _294
REMARK  124  A    between atoms: _294  and  _295
REMARK  125  A    between atoms: _294  and  _297
REMARK  126  A    between atoms: _297  and  _298
REMARK  127  A    between atoms: _303  and  _305
REMARK  128  A    between atoms: _305  and  _306
REMARK  129  A    between atoms: _305  and  _308
REMARK  130  A    between atoms: _308  and  _309
REMARK  131  A    between atoms: _309  and  _310
REMARK  132  A    between atoms: _315  and  _317
REMARK  133  A    between atoms: _317  and  _318
REMARK  134  A    between atoms: _317  and  _320
REMARK  135  A    between atoms: _320  and  _321
REMARK  136  A    between atoms: _323  and  _325
REMARK  137  A    between atoms: _325  and  _326
REMARK  138  A    between atoms: _325  and  _328
REMARK  139  A    between atoms: _328  and  _329
REMARK  140  A    between atoms: _339  and  _341
REMARK  141  A    between atoms: _341  and  _342
REMARK  142  A    between atoms: _344  and  _346
REMARK  143  A    between atoms: _346  and  _347
REMARK  144  A    between atoms: _350  and  _352
REMARK  145  A    between atoms: _352  and  _353
REMARK  146  A    between atoms: _352  and  _355
REMARK  147  A    between atoms: _355  and  _356
REMARK  148  A    between atoms: _359  and  _361
REMARK  149  A    between atoms: _361  and  _362
REMARK  150  A    between atoms: _361  and  _364
REMARK  151  A    between atoms: _364  and  _365
REMARK  152  A    between atoms: _368  and  _370
REMARK  153  A    between atoms: _370  and  _371
REMARK  154  A    between atoms: _370  and  _373
REMARK  155  A    between atoms: _373  and  _374
REMARK  156  A    between atoms: _379  and  _381
REMARK  157  A    between atoms: _381  and  _382
REMARK  158  A    between atoms: _381  and  _384
REMARK  159  A    between atoms: _384  and  _385
REMARK  160  A    between atoms: _391  and  _393
REMARK  161  A    between atoms: _393  and  _394
REMARK  162  A    between atoms: _393  and  _396
REMARK  163  A    between atoms: _396  and  _397
REMARK  164  A    between atoms: _397  and  _398
REMARK  165  A    between atoms: _403  and  _405
REMARK  166  A    between atoms: _405  and  _406
REMARK  167  A    between atoms: _408  and  _410
REMARK  168  A    between atoms: _410  and  _411
REMARK  169  A    between atoms: _410  and  _413
REMARK  170  A    between atoms: _413  and  _414
REMARK  171  A    between atoms: _417  and  _419
REMARK  172  A    between atoms: _419  and  _420
REMARK  173  A    between atoms: _419  and  _422
REMARK  174  A    between atoms: _422  and  _423
REMARK  175  A    between atoms: _426  and  _428
REMARK  176  A    between atoms: _428  and  _429
REMARK  177  A    between atoms: _428  and  _431
REMARK  178  A    between atoms: _431  and  _432
REMARK  179  A    between atoms: _437  and  _438
REMARK  180  A    between atoms: _440  and  _442
REMARK  181  A    between atoms: _442  and  _443
REMARK  182  A    between atoms: _442  and  _445
REMARK  183  A    between atoms: _448  and  _450
REMARK  184  A    between atoms: _450  and  _451
REMARK  185  A    between atoms: _454  and  _456
REMARK  186  A    between atoms: _456  and  _457
REMARK  187  A    between atoms: _456  and  _459
REMARK  188  A    between atoms: _459  and  _460
REMARK  189  A    between atoms: _463  and  _465
REMARK  190  A    between atoms: _465  and  _466
REMARK  191  A    between atoms: _465  and  _468
REMARK  192  A    between atoms: _468  and  _469
REMARK  193  A    between atoms: _469  and  _470
REMARK  194  A    between atoms: _473  and  _475
REMARK  195  A    between atoms: _475  and  _476
REMARK  196  A    between atoms: _475  and  _478
REMARK  197  A    between atoms: _478  and  _479
REMARK  198  A    between atoms: _479  and  _480
REMARK  199  A    between atoms: _483  and  _485
REMARK  200  A    between atoms: _485  and  _486
REMARK  201  A    between atoms: _485  and  _488
REMARK  202  A    between atoms: _488  and  _489
REMARK  203  A    between atoms: _492  and  _494
REMARK  204  A    between atoms: _494  and  _495
REMARK  205  A    between atoms: _494  and  _497
REMARK  206  A    between atoms: _497  and  _498
REMARK  207  A    between atoms: _503  and  _505
REMARK  208  A    between atoms: _505  and  _506
REMARK  209  A    between atoms: _508  and  _510
REMARK  210  A    between atoms: _510  and  _511
REMARK  211  A    between atoms: _510  and  _513
REMARK  212  A    between atoms: _513  and  _514
REMARK  213  A    between atoms: _516  and  _518
REMARK  214  A    between atoms: _518  and  _519
REMARK  215  A    between atoms: _518  and  _521
REMARK  216  A    between atoms: _521  and  _522
REMARK  217  A    between atoms: _527  and  _529
REMARK  218  A    between atoms: _529  and  _530
REMARK  219  A    between atoms: _529  and  _532
REMARK  220  A    between atoms: _532  and  _533
REMARK  221  A    between atoms: _536  and  _538
REMARK  222  A    between atoms: _538  and  _539
REMARK  223  A    between atoms: _538  and  _541
REMARK  224  A    between atoms: _541  and  _542
REMARK  225  A    between atoms: _545  and  _547
REMARK  226  A    between atoms: _547  and  _548
REMARK  227  A    between atoms: _547  and  _550
REMARK  228  A    between atoms: _550  and  _551
REMARK  229  A    between atoms: _551  and  _552
REMARK  230  A    between atoms: _552  and  _553
REMARK  231  A    between atoms: _562  and  _564
REMARK  232  A    between atoms: _564  and  _565
REMARK  233  A    between atoms: _564  and  _567
REMARK  234  A    between atoms: _567  and  _568
REMARK  235  A    between atoms: _573  and  _575
REMARK  236  A    between atoms: _575  and  _576
REMARK  237  A    between atoms: _575  and  _578
REMARK  238  A    between atoms: _578  and  _579
REMARK  239  A    between atoms: _579  and  _580
REMARK  240  A    between atoms: _583  and  _585
REMARK  241  A    between atoms: _585  and  _586
REMARK  242  A    between atoms: _589  and  _591
REMARK  243  A    between atoms: _591  and  _592
REMARK  244  A    between atoms: _591  and  _594
REMARK  245  A    between atoms: _597  and  _599
REMARK  246  A    between atoms: _599  and  _600
REMARK  247  A    between atoms: _599  and  _602
REMARK  248  A    between atoms: _602  and  _603
REMARK  249  A    between atoms: _606  and  _608
REMARK  250  A    between atoms: _608  and  _609
REMARK  251  A    between atoms: _612  and  _614
REMARK  252  A    between atoms: _614  and  _615
REMARK  253  A    between atoms: _617  and  _619
REMARK  254  A    between atoms: _619  and  _620
REMARK  255  A    between atoms: _622  and  _624
REMARK  256  A    between atoms: _624  and  _625
REMARK  257  A    between atoms: _627  and  _629
REMARK  258  A    between atoms: _629  and  _630
REMARK  259  A    between atoms: _629  and  _632
REMARK  260  A    between atoms: _632  and  _633
REMARK  261  A    between atoms: _639  and  _641
REMARK  262  A    between atoms: _641  and  _642
REMARK  263  A    between atoms: _641  and  _644
REMARK  264  A    between atoms: _644  and  _645
REMARK  265  A    between atoms: _648  and  _650
REMARK  266  A    between atoms: _650  and  _651
REMARK  267  A    between atoms: _650  and  _653
REMARK  268  A    between atoms: _653  and  _654
REMARK  269  A    between atoms: _659  and  _661
REMARK  270  A    between atoms: _661  and  _662
REMARK  271  A    between atoms: _665  and  _667
REMARK  272  A    between atoms: _667  and  _668
REMARK  273  A    between atoms: _667  and  _670
REMARK  274  A    between atoms: _670  and  _671
REMARK  275  A    between atoms: _674  and  _676
REMARK  276  A    between atoms: _676  and  _677
REMARK  277  A    between atoms: _676  and  _679
REMARK  278  A    between atoms: _679  and  _680
REMARK  279  A    between atoms: _680  and  _681
REMARK  280  A    between atoms: _686  and  _688
REMARK  281  A    between atoms: _688  and  _689
REMARK  282  A    between atoms: _688  and  _691
REMARK  283  A    between atoms: _691  and  _692
REMARK                            x       y       z     vdW  Elec       q    Type
REMARK                         _______ _______ _______ _____ _____    ______ ____
ROOT
ATOM      1  O   HOH     1       3.416 -47.309 -37.006  0.00  0.00    +0.000 OA
ENDROOT
TORSDOF 0
