REMARK  Name = ../refined-set-2016/4tmn/4tmn_pocket.pdb
REMARK  240 active torsions:
REMARK  status: ('A' for Active; 'I' for Inactive)
REMARK    1  A    between atoms: _1  and  _3
REMARK    2  A    between atoms: _3  and  _4
REMARK    3  A    between atoms: _3  and  _6
REMARK    4  A    between atoms: _6  and  _7
REMARK    5  A    between atoms: _12  and  _13
REMARK    6  A    between atoms: _15  and  _17
REMARK    7  A    between atoms: _17  and  _18
REMARK    8  A    between atoms: _17  and  _20
REMARK    9  A    between atoms: _20  and  _21
REMARK   10  A    between atoms: _26  and  _27
REMARK   11  A    between atoms: _29  and  _31
REMARK   12  A    between atoms: _31  and  _32
REMARK   13  A    between atoms: _31  and  _34
REMARK   14  A    between atoms: _34  and  _35
REMARK   15  A    between atoms: _40  and  _42
REMARK   16  A    between atoms: _42  and  _43
REMARK   17  A    between atoms: _42  and  _45
REMARK   18  A    between atoms: _45  and  _46
REMARK   19  A    between atoms: _51  and  _53
REMARK   20  A    between atoms: _53  and  _54
REMARK   21  A    between atoms: _57  and  _59
REMARK   22  A    between atoms: _59  and  _60
REMARK   23  A    between atoms: _59  and  _62
REMARK   24  A    between atoms: _62  and  _63
REMARK   25  A    between atoms: _69  and  _71
REMARK   26  A    between atoms: _71  and  _72
REMARK   27  A    between atoms: _71  and  _74
REMARK   28  A    between atoms: _74  and  _75
REMARK   29  A    between atoms: _85  and  _87
REMARK   30  A    between atoms: _87  and  _88
REMARK   31  A    between atoms: _87  and  _90
REMARK   32  A    between atoms: _90  and  _91
REMARK   33  A    between atoms: _96  and  _98
REMARK   34  A    between atoms: _98  and  _99
REMARK   35  A    between atoms: _103  and  _104
REMARK   36  A    between atoms: _103  and  _106
REMARK   37  A    between atoms: _106  and  _107
REMARK   38  A    between atoms: _109  and  _111
REMARK   39  A    between atoms: _111  and  _112
REMARK   40  A    between atoms: _111  and  _114
REMARK   41  A    between atoms: _114  and  _115
REMARK   42  A    between atoms: _115  and  _116
REMARK   43  A    between atoms: _119  and  _121
REMARK   44  A    between atoms: _121  and  _122
REMARK   45  A    between atoms: _121  and  _124
REMARK   46  A    between atoms: _124  and  _125
REMARK   47  A    between atoms: _125  and  _126
REMARK   48  A    between atoms: _128  and  _130
REMARK   49  A    between atoms: _130  and  _131
REMARK   50  A    between atoms: _130  and  _133
REMARK   51  A    between atoms: _136  and  _138
REMARK   52  A    between atoms: _138  and  _139
REMARK   53  A    between atoms: _138  and  _141
REMARK   54  A    between atoms: _141  and  _142
REMARK   55  A    between atoms: _147  and  _148
REMARK   56  A    between atoms: _150  and  _152
REMARK   57  A    between atoms: _152  and  _153
REMARK   58  A    between atoms: _155  and  _157
REMARK   59  A    between atoms: _157  and  _158
REMARK   60  A    between atoms: _157  and  _160
REMARK   61  A    between atoms: _160  and  _161
REMARK   62  A    between atoms: _164  and  _166
REMARK   63  A    between atoms: _166  and  _167
REMARK   64  A    between atoms: _166  and  _169
REMARK   65  A    between atoms: _169  and  _170
REMARK   66  A    between atoms: _176  and  _178
REMARK   67  A    between atoms: _178  and  _179
REMARK   68  A    between atoms: _178  and  _181
REMARK   69  A    between atoms: _181  and  _182
REMARK   70  A    between atoms: _185  and  _187
REMARK   71  A    between atoms: _187  and  _188
REMARK   72  A    between atoms: _190  and  _192
REMARK   73  A    between atoms: _192  and  _193
REMARK   74  A    between atoms: _192  and  _195
REMARK   75  A    between atoms: _195  and  _196
REMARK   76  A    between atoms: _199  and  _201
REMARK   77  A    between atoms: _201  and  _202
REMARK   78  A    between atoms: _201  and  _204
REMARK   79  A    between atoms: _207  and  _209
REMARK   80  A    between atoms: _209  and  _210
REMARK   81  A    between atoms: _209  and  _212
REMARK   82  A    between atoms: _215  and  _217
REMARK   83  A    between atoms: _217  and  _218
REMARK   84  A    between atoms: _221  and  _223
REMARK   85  A    between atoms: _234  and  _237
REMARK   86  A    between atoms: _237  and  _238
REMARK   87  A    between atoms: _238  and  _239
REMARK   88  A    between atoms: _244  and  _247
REMARK   89  A    between atoms: _247  and  _248
REMARK   90  A    between atoms: _253  and  _256
REMARK   91  A    between atoms: _256  and  _257
REMARK   92  A    between atoms: _262  and  _263
REMARK   93  A    between atoms: _271  and  _273
REMARK   94  A    between atoms: _273  and  _274
REMARK   95  A    between atoms: _277  and  _279
REMARK   96  A    between atoms: _279  and  _280
REMARK   97  A    between atoms: _279  and  _282
REMARK   98  A    between atoms: _282  and  _283
REMARK   99  A    between atoms: _286  and  _288
REMARK  100  A    between atoms: _288  and  _289
REMARK  101  A    between atoms: _288  and  _291
REMARK  102  A    between atoms: _291  and  _292
REMARK  103  A    between atoms: _295  and  _297
REMARK  104  A    between atoms: _297  and  _298
REMARK  105  A    between atoms: _300  and  _302
REMARK  106  A    between atoms: _302  and  _303
REMARK  107  A    between atoms: _302  and  _305
REMARK  108  A    between atoms: _305  and  _306
REMARK  109  A    between atoms: _309  and  _311
REMARK  110  A    between atoms: _311  and  _312
REMARK  111  A    between atoms: _311  and  _314
REMARK  112  A    between atoms: _314  and  _315
REMARK  113  A    between atoms: _318  and  _320
REMARK  114  A    between atoms: _320  and  _321
REMARK  115  A    between atoms: _320  and  _323
REMARK  116  A    between atoms: _323  and  _324
REMARK  117  A    between atoms: _329  and  _330
REMARK  118  A    between atoms: _332  and  _334
REMARK  119  A    between atoms: _334  and  _335
REMARK  120  A    between atoms: _334  and  _337
REMARK  121  A    between atoms: _337  and  _338
REMARK  122  A    between atoms: _338  and  _339
REMARK  123  A    between atoms: _344  and  _346
REMARK  124  A    between atoms: _346  and  _347
REMARK  125  A    between atoms: _349  and  _351
REMARK  126  A    between atoms: _351  and  _352
REMARK  127  A    between atoms: _351  and  _354
REMARK  128  A    between atoms: _354  and  _355
REMARK  129  A    between atoms: _360  and  _362
REMARK  130  A    between atoms: _362  and  _363
REMARK  131  A    between atoms: _362  and  _365
REMARK  132  A    between atoms: _365  and  _366
REMARK  133  A    between atoms: _366  and  _367
REMARK  134  A    between atoms: _367  and  _368
REMARK  135  A    between atoms: _368  and  ZN_631
REMARK  136  A    between atoms: _370  and  _372
REMARK  137  A    between atoms: _372  and  _373
REMARK  138  A    between atoms: _372  and  _375
REMARK  139  A    between atoms: _375  and  _376
REMARK  140  A    between atoms: _378  and  _380
REMARK  141  A    between atoms: _380  and  _381
REMARK  142  A    between atoms: _380  and  _383
REMARK  143  A    between atoms: _383  and  _384
REMARK  144  A    between atoms: _387  and  _389
REMARK  145  A    between atoms: _389  and  _390
REMARK  146  A    between atoms: _392  and  _394
REMARK  147  A    between atoms: _394  and  _395
REMARK  148  A    between atoms: _394  and  _397
REMARK  149  A    between atoms: _397  and  _398
REMARK  150  A    between atoms: _401  and  _403
REMARK  151  A    between atoms: _403  and  _404
REMARK  152  A    between atoms: _406  and  _408
REMARK  153  A    between atoms: _408  and  _409
REMARK  154  A    between atoms: _408  and  _411
REMARK  155  A    between atoms: _411  and  _412
REMARK  156  A    between atoms: _412  and  _413
REMARK  157  A    between atoms: _416  and  _418
REMARK  158  A    between atoms: _418  and  _419
REMARK  159  A    between atoms: _418  and  _421
REMARK  160  A    between atoms: _424  and  _426
REMARK  161  A    between atoms: _426  and  _427
REMARK  162  A    between atoms: _426  and  _429
REMARK  163  A    between atoms: _429  and  _430
REMARK  164  A    between atoms: _435  and  _436
REMARK  165  A    between atoms: _438  and  _440
REMARK  166  A    between atoms: _440  and  _441
REMARK  167  A    between atoms: _440  and  _443
REMARK  168  A    between atoms: _443  and  _444
REMARK  169  A    between atoms: _447  and  _449
REMARK  170  A    between atoms: _449  and  _450
REMARK  171  A    between atoms: _449  and  _452
REMARK  172  A    between atoms: _452  and  _453
REMARK  173  A    between atoms: _453  and  _454
REMARK  174  A    between atoms: _454  and  _455
REMARK  175  A    between atoms: _464  and  _466
REMARK  176  A    between atoms: _466  and  _467
REMARK  177  A    between atoms: _466  and  _469
REMARK  178  A    between atoms: _469  and  _470
REMARK  179  A    between atoms: _473  and  _475
REMARK  180  A    between atoms: _475  and  _476
REMARK  181  A    between atoms: _475  and  _478
REMARK  182  A    between atoms: _478  and  _479
REMARK  183  A    between atoms: _484  and  _486
REMARK  184  A    between atoms: _486  and  _487
REMARK  185  A    between atoms: _486  and  _489
REMARK  186  A    between atoms: _492  and  _494
REMARK  187  A    between atoms: _494  and  _495
REMARK  188  A    between atoms: _494  and  _497
REMARK  189  A    between atoms: _497  and  _498
REMARK  190  A    between atoms: _503  and  _505
REMARK  191  A    between atoms: _505  and  _506
REMARK  192  A    between atoms: _505  and  _508
REMARK  193  A    between atoms: _508  and  _509
REMARK  194  A    between atoms: _512  and  _514
REMARK  195  A    between atoms: _514  and  _515
REMARK  196  A    between atoms: _514  and  _517
REMARK  197  A    between atoms: _517  and  _518
REMARK  198  A    between atoms: _520  and  _522
REMARK  199  A    between atoms: _522  and  _523
REMARK  200  A    between atoms: _522  and  _525
REMARK  201  A    between atoms: _525  and  _526
REMARK  202  A    between atoms: _526  and  _527
REMARK  203  A    between atoms: _527  and  _528
REMARK  204  A    between atoms: _537  and  _539
REMARK  205  A    between atoms: _539  and  _540
REMARK  206  A    between atoms: _539  and  _542
REMARK  207  A    between atoms: _542  and  _543
REMARK  208  A    between atoms: _546  and  _548
REMARK  209  A    between atoms: _548  and  _549
REMARK  210  A    between atoms: _548  and  _551
REMARK  211  A    between atoms: _551  and  _552
REMARK  212  A    between atoms: _555  and  _557
REMARK  213  A    between atoms: _557  and  _558
REMARK  214  A    between atoms: _557  and  _560
REMARK  215  A    between atoms: _560  and  _561
REMARK  216  A    between atoms: _564  and  _566
REMARK  217  A    between atoms: _566  and  _567
REMARK  218  A    between atoms: _566  and  _569
REMARK  219  A    between atoms: _569  and  _570
REMARK  220  A    between atoms: _575  and  _576
REMARK  221  A    between atoms: _578  and  _580
REMARK  222  A    between atoms: _580  and  _581
REMARK  223  A    between atoms: _580  and  _583
REMARK  224  A    between atoms: _583  and  _584
REMARK  225  A    between atoms: _586  and  _588
REMARK  226  A    between atoms: _588  and  _589
REMARK  227  A    between atoms: _588  and  _591
REMARK  228  A    between atoms: _591  and  _592
REMARK  229  A    between atoms: _597  and  _598
REMARK  230  A    between atoms: _600  and  _602
REMARK  231  A    between atoms: _602  and  _603
REMARK  232  A    between atoms: _602  and  _605
REMARK  233  A    between atoms: _605  and  _606
REMARK  234  A    between atoms: _612  and  _614
REMARK  235  A    between atoms: _614  and  _615
REMARK  236  A    between atoms: _614  and  _617
REMARK  237  A    between atoms: _620  and  _622
REMARK  238  A    between atoms: _622  and  _623
REMARK  239  A    between atoms: _622  and  _625
REMARK  240  A    between atoms: _625  and  _626
REMARK                            x       y       z     vdW  Elec       q    Type
REMARK                         _______ _______ _______ _____ _____    ______ ____
ROOT
ATOM      1  CG  TYR A   1      40.035  19.421  -1.718  0.00  0.00    -0.020 A 
ATOM      2  CD2 TYR A   1      40.707  18.232  -2.032  0.00  0.00    -0.001 A 
ATOM      3  CE2 TYR A   1      40.549  17.632  -3.285  0.00  0.00    +0.036 A 
ATOM      4  CZ  TYR A   1      39.724  18.232  -4.221  0.00  0.00    +0.134 A 
ATOM      5  CE1 TYR A   1      39.058  19.440  -3.927  0.00  0.00    +0.036 A 
ATOM      6  CD1 TYR A   1      39.174  20.002  -2.679  0.00  0.00    -0.001 A 
ENDROOT
BRANCH   4   7
ATOM      7  OH  TYR A   1      39.634  17.601  -5.466  0.00  0.00    -0.506 OA
ATOM      8  HH  TYR A   1      39.021  18.114  -6.051  0.00  0.00    +0.292 HD
ENDBRANCH   4   7
BRANCH   1   9
ATOM      9  CB  TYR A   1      40.231  20.042  -0.389  0.00  0.00    +0.051 C 
BRANCH   9  10
ATOM     10  CA  TYR A   1      39.115  19.659   0.530  0.00  0.00    +0.137 C 
BRANCH  10  11
ATOM     11  N   TYR A   1      39.439  20.219   1.826  0.00  0.00    -0.239 NA
ATOM     12  H   TYR A   1      40.426  20.479   2.027  0.00  0.00    +0.142 HD
ENDBRANCH  10  11
BRANCH  10  13
ATOM     13  C   TYR A   1      39.038  18.112   0.624  0.00  0.00    +0.224 C 
ATOM     14  O   TYR A   1      39.981  17.456   1.072  0.00  0.00    -0.287 OA
ENDBRANCH  10  13
ENDBRANCH   9  10
ENDBRANCH   1   9
TORSDOF 5
REMARK  Name = ../refined-set-2016/4tmn/4tmn_pocket.pdb
REMARK  240 active torsions:
REMARK  status: ('A' for Active; 'I' for Inactive)
REMARK    1  A    between atoms: _1  and  _3
REMARK    2  A    between atoms: _3  and  _4
REMARK    3  A    between atoms: _3  and  _6
REMARK    4  A    between atoms: _6  and  _7
REMARK    5  A    between atoms: _12  and  _13
REMARK    6  A    between atoms: _15  and  _17
REMARK    7  A    between atoms: _17  and  _18
REMARK    8  A    between atoms: _17  and  _20
REMARK    9  A    between atoms: _20  and  _21
REMARK   10  A    between atoms: _26  and  _27
REMARK   11  A    between atoms: _29  and  _31
REMARK   12  A    between atoms: _31  and  _32
REMARK   13  A    between atoms: _31  and  _34
REMARK   14  A    between atoms: _34  and  _35
REMARK   15  A    between atoms: _40  and  _42
REMARK   16  A    between atoms: _42  and  _43
REMARK   17  A    between atoms: _42  and  _45
REMARK   18  A    between atoms: _45  and  _46
REMARK   19  A    between atoms: _51  and  _53
REMARK   20  A    between atoms: _53  and  _54
REMARK   21  A    between atoms: _57  and  _59
REMARK   22  A    between atoms: _59  and  _60
REMARK   23  A    between atoms: _59  and  _62
REMARK   24  A    between atoms: _62  and  _63
REMARK   25  A    between atoms: _69  and  _71
REMARK   26  A    between atoms: _71  and  _72
REMARK   27  A    between atoms: _71  and  _74
REMARK   28  A    between atoms: _74  and  _75
REMARK   29  A    between atoms: _85  and  _87
REMARK   30  A    between atoms: _87  and  _88
REMARK   31  A    between atoms: _87  and  _90
REMARK   32  A    between atoms: _90  and  _91
REMARK   33  A    between atoms: _96  and  _98
REMARK   34  A    between atoms: _98  and  _99
REMARK   35  A    between atoms: _103  and  _104
REMARK   36  A    between atoms: _103  and  _106
REMARK   37  A    between atoms: _106  and  _107
REMARK   38  A    between atoms: _109  and  _111
REMARK   39  A    between atoms: _111  and  _112
REMARK   40  A    between atoms: _111  and  _114
REMARK   41  A    between atoms: _114  and  _115
REMARK   42  A    between atoms: _115  and  _116
REMARK   43  A    between atoms: _119  and  _121
REMARK   44  A    between atoms: _121  and  _122
REMARK   45  A    between atoms: _121  and  _124
REMARK   46  A    between atoms: _124  and  _125
REMARK   47  A    between atoms: _125  and  _126
REMARK   48  A    between atoms: _128  and  _130
REMARK   49  A    between atoms: _130  and  _131
REMARK   50  A    between atoms: _130  and  _133
REMARK   51  A    between atoms: _136  and  _138
REMARK   52  A    between atoms: _138  and  _139
REMARK   53  A    between atoms: _138  and  _141
REMARK   54  A    between atoms: _141  and  _142
REMARK   55  A    between atoms: _147  and  _148
REMARK   56  A    between atoms: _150  and  _152
REMARK   57  A    between atoms: _152  and  _153
REMARK   58  A    between atoms: _155  and  _157
REMARK   59  A    between atoms: _157  and  _158
REMARK   60  A    between atoms: _157  and  _160
REMARK   61  A    between atoms: _160  and  _161
REMARK   62  A    between atoms: _164  and  _166
REMARK   63  A    between atoms: _166  and  _167
REMARK   64  A    between atoms: _166  and  _169
REMARK   65  A    between atoms: _169  and  _170
REMARK   66  A    between atoms: _176  and  _178
REMARK   67  A    between atoms: _178  and  _179
REMARK   68  A    between atoms: _178  and  _181
REMARK   69  A    between atoms: _181  and  _182
REMARK   70  A    between atoms: _185  and  _187
REMARK   71  A    between atoms: _187  and  _188
REMARK   72  A    between atoms: _190  and  _192
REMARK   73  A    between atoms: _192  and  _193
REMARK   74  A    between atoms: _192  and  _195
REMARK   75  A    between atoms: _195  and  _196
REMARK   76  A    between atoms: _199  and  _201
REMARK   77  A    between atoms: _201  and  _202
REMARK   78  A    between atoms: _201  and  _204
REMARK   79  A    between atoms: _207  and  _209
REMARK   80  A    between atoms: _209  and  _210
REMARK   81  A    between atoms: _209  and  _212
REMARK   82  A    between atoms: _215  and  _217
REMARK   83  A    between atoms: _217  and  _218
REMARK   84  A    between atoms: _221  and  _223
REMARK   85  A    between atoms: _234  and  _237
REMARK   86  A    between atoms: _237  and  _238
REMARK   87  A    between atoms: _238  and  _239
REMARK   88  A    between atoms: _244  and  _247
REMARK   89  A    between atoms: _247  and  _248
REMARK   90  A    between atoms: _253  and  _256
REMARK   91  A    between atoms: _256  and  _257
REMARK   92  A    between atoms: _262  and  _263
REMARK   93  A    between atoms: _271  and  _273
REMARK   94  A    between atoms: _273  and  _274
REMARK   95  A    between atoms: _277  and  _279
REMARK   96  A    between atoms: _279  and  _280
REMARK   97  A    between atoms: _279  and  _282
REMARK   98  A    between atoms: _282  and  _283
REMARK   99  A    between atoms: _286  and  _288
REMARK  100  A    between atoms: _288  and  _289
REMARK  101  A    between atoms: _288  and  _291
REMARK  102  A    between atoms: _291  and  _292
REMARK  103  A    between atoms: _295  and  _297
REMARK  104  A    between atoms: _297  and  _298
REMARK  105  A    between atoms: _300  and  _302
REMARK  106  A    between atoms: _302  and  _303
REMARK  107  A    between atoms: _302  and  _305
REMARK  108  A    between atoms: _305  and  _306
REMARK  109  A    between atoms: _309  and  _311
REMARK  110  A    between atoms: _311  and  _312
REMARK  111  A    between atoms: _311  and  _314
REMARK  112  A    between atoms: _314  and  _315
REMARK  113  A    between atoms: _318  and  _320
REMARK  114  A    between atoms: _320  and  _321
REMARK  115  A    between atoms: _320  and  _323
REMARK  116  A    between atoms: _323  and  _324
REMARK  117  A    between atoms: _329  and  _330
REMARK  118  A    between atoms: _332  and  _334
REMARK  119  A    between atoms: _334  and  _335
REMARK  120  A    between atoms: _334  and  _337
REMARK  121  A    between atoms: _337  and  _338
REMARK  122  A    between atoms: _338  and  _339
REMARK  123  A    between atoms: _344  and  _346
REMARK  124  A    between atoms: _346  and  _347
REMARK  125  A    between atoms: _349  and  _351
REMARK  126  A    between atoms: _351  and  _352
REMARK  127  A    between atoms: _351  and  _354
REMARK  128  A    between atoms: _354  and  _355
REMARK  129  A    between atoms: _360  and  _362
REMARK  130  A    between atoms: _362  and  _363
REMARK  131  A    between atoms: _362  and  _365
REMARK  132  A    between atoms: _365  and  _366
REMARK  133  A    between atoms: _366  and  _367
REMARK  134  A    between atoms: _367  and  _368
REMARK  135  A    between atoms: _368  and  ZN_631
REMARK  136  A    between atoms: _370  and  _372
REMARK  137  A    between atoms: _372  and  _373
REMARK  138  A    between atoms: _372  and  _375
REMARK  139  A    between atoms: _375  and  _376
REMARK  140  A    between atoms: _378  and  _380
REMARK  141  A    between atoms: _380  and  _381
REMARK  142  A    between atoms: _380  and  _383
REMARK  143  A    between atoms: _383  and  _384
REMARK  144  A    between atoms: _387  and  _389
REMARK  145  A    between atoms: _389  and  _390
REMARK  146  A    between atoms: _392  and  _394
REMARK  147  A    between atoms: _394  and  _395
REMARK  148  A    between atoms: _394  and  _397
REMARK  149  A    between atoms: _397  and  _398
REMARK  150  A    between atoms: _401  and  _403
REMARK  151  A    between atoms: _403  and  _404
REMARK  152  A    between atoms: _406  and  _408
REMARK  153  A    between atoms: _408  and  _409
REMARK  154  A    between atoms: _408  and  _411
REMARK  155  A    between atoms: _411  and  _412
REMARK  156  A    between atoms: _412  and  _413
REMARK  157  A    between atoms: _416  and  _418
REMARK  158  A    between atoms: _418  and  _419
REMARK  159  A    between atoms: _418  and  _421
REMARK  160  A    between atoms: _424  and  _426
REMARK  161  A    between atoms: _426  and  _427
REMARK  162  A    between atoms: _426  and  _429
REMARK  163  A    between atoms: _429  and  _430
REMARK  164  A    between atoms: _435  and  _436
REMARK  165  A    between atoms: _438  and  _440
REMARK  166  A    between atoms: _440  and  _441
REMARK  167  A    between atoms: _440  and  _443
REMARK  168  A    between atoms: _443  and  _444
REMARK  169  A    between atoms: _447  and  _449
REMARK  170  A    between atoms: _449  and  _450
REMARK  171  A    between atoms: _449  and  _452
REMARK  172  A    between atoms: _452  and  _453
REMARK  173  A    between atoms: _453  and  _454
REMARK  174  A    between atoms: _454  and  _455
REMARK  175  A    between atoms: _464  and  _466
REMARK  176  A    between atoms: _466  and  _467
REMARK  177  A    between atoms: _466  and  _469
REMARK  178  A    between atoms: _469  and  _470
REMARK  179  A    between atoms: _473  and  _475
REMARK  180  A    between atoms: _475  and  _476
REMARK  181  A    between atoms: _475  and  _478
REMARK  182  A    between atoms: _478  and  _479
REMARK  183  A    between atoms: _484  and  _486
REMARK  184  A    between atoms: _486  and  _487
REMARK  185  A    between atoms: _486  and  _489
REMARK  186  A    between atoms: _492  and  _494
REMARK  187  A    between atoms: _494  and  _495
REMARK  188  A    between atoms: _494  and  _497
REMARK  189  A    between atoms: _497  and  _498
REMARK  190  A    between atoms: _503  and  _505
REMARK  191  A    between atoms: _505  and  _506
REMARK  192  A    between atoms: _505  and  _508
REMARK  193  A    between atoms: _508  and  _509
REMARK  194  A    between atoms: _512  and  _514
REMARK  195  A    between atoms: _514  and  _515
REMARK  196  A    between atoms: _514  and  _517
REMARK  197  A    between atoms: _517  and  _518
REMARK  198  A    between atoms: _520  and  _522
REMARK  199  A    between atoms: _522  and  _523
REMARK  200  A    between atoms: _522  and  _525
REMARK  201  A    between atoms: _525  and  _526
REMARK  202  A    between atoms: _526  and  _527
REMARK  203  A    between atoms: _527  and  _528
REMARK  204  A    between atoms: _537  and  _539
REMARK  205  A    between atoms: _539  and  _540
REMARK  206  A    between atoms: _539  and  _542
REMARK  207  A    between atoms: _542  and  _543
REMARK  208  A    between atoms: _546  and  _548
REMARK  209  A    between atoms: _548  and  _549
REMARK  210  A    between atoms: _548  and  _551
REMARK  211  A    between atoms: _551  and  _552
REMARK  212  A    between atoms: _555  and  _557
REMARK  213  A    between atoms: _557  and  _558
REMARK  214  A    between atoms: _557  and  _560
REMARK  215  A    between atoms: _560  and  _561
REMARK  216  A    between atoms: _564  and  _566
REMARK  217  A    between atoms: _566  and  _567
REMARK  218  A    between atoms: _566  and  _569
REMARK  219  A    between atoms: _569  and  _570
REMARK  220  A    between atoms: _575  and  _576
REMARK  221  A    between atoms: _578  and  _580
REMARK  222  A    between atoms: _580  and  _581
REMARK  223  A    between atoms: _580  and  _583
REMARK  224  A    between atoms: _583  and  _584
REMARK  225  A    between atoms: _586  and  _588
REMARK  226  A    between atoms: _588  and  _589
REMARK  227  A    between atoms: _588  and  _591
REMARK  228  A    between atoms: _591  and  _592
REMARK  229  A    between atoms: _597  and  _598
REMARK  230  A    between atoms: _600  and  _602
REMARK  231  A    between atoms: _602  and  _603
REMARK  232  A    between atoms: _602  and  _605
REMARK  233  A    between atoms: _605  and  _606
REMARK  234  A    between atoms: _612  and  _614
REMARK  235  A    between atoms: _614  and  _615
REMARK  236  A    between atoms: _614  and  _617
REMARK  237  A    between atoms: _620  and  _622
REMARK  238  A    between atoms: _622  and  _623
REMARK  239  A    between atoms: _622  and  _625
REMARK  240  A    between atoms: _625  and  _626
REMARK                            x       y       z     vdW  Elec       q    Type
REMARK                         _______ _______ _______ _____ _____    ______ ____
ROOT
ATOM      1  C   TRP A   6      46.845  23.902  -8.897  0.00  0.00    +0.241 C 
ATOM      2  N   ASN A   7      45.572  24.309  -9.104  0.00  0.00    -0.297 N 
ATOM      3  H   ASN A   7      45.182  25.031  -8.465  0.00  0.00    +0.150 HD
ATOM      4  O   TRP A   6      47.356  23.040  -9.554  0.00  0.00    -0.273 OA
ENDROOT
BRANCH   1   5
ATOM      5  CA  TRP A   6      47.615  24.459  -7.701  0.00  0.00    +0.153 C 
BRANCH   5   8
ATOM      6  C   PHE A   5      47.441  22.804  -5.889  0.00  0.00    +0.241 C 
ATOM      7  O   PHE A   5      46.707  23.455  -5.201  0.00  0.00    -0.273 OA
ATOM      8  N   TRP A   6      47.942  23.235  -7.028  0.00  0.00    -0.297 N 
ATOM      9  H   TRP A   6      48.648  22.625  -7.487  0.00  0.00    +0.150 HD
BRANCH   6  10
ATOM     10  CA  PHE A   5      47.862  21.376  -5.506  0.00  0.00    +0.153 C 
BRANCH  10  13
ATOM     11  C   ALA A   4      48.171  20.065  -3.408  0.00  0.00    +0.241 C 
ATOM     12  O   ALA A   4      48.988  19.306  -3.896  0.00  0.00    -0.273 OA
ATOM     13  N   PHE A   5      47.577  21.059  -4.106  0.00  0.00    -0.297 N 
ATOM     14  H   PHE A   5      46.868  21.639  -3.614  0.00  0.00    +0.150 HD
BRANCH  11  15
ATOM     15  CA  ALA A   4      47.777  19.859  -1.966  0.00  0.00    +0.149 C 
ATOM     16  CB  ALA A   4      48.563  20.754  -1.029  0.00  0.00    +0.031 C 
BRANCH  15  19
ATOM     17  C   ASN A   3      47.410  17.645  -0.995  0.00  0.00    +0.241 C 
ATOM     18  O   ASN A   3      46.476  17.958  -0.238  0.00  0.00    -0.273 OA
ATOM     19  N   ALA A   4      48.082  18.467  -1.792  0.00  0.00    -0.297 N 
ATOM     20  H   ALA A   4      48.884  18.076  -2.327  0.00  0.00    +0.150 HD
BRANCH  17  21
ATOM     21  CA  ASN A   3      47.879  16.194  -1.016  0.00  0.00    +0.158 C 
BRANCH  21  23
ATOM     22  C   ASN A   2      47.546  14.196   0.304  0.00  0.00    +0.241 C 
ATOM     23  N   ASN A   3      47.112  15.407  -0.052  0.00  0.00    -0.297 N 
ATOM     24  H   ASN A   3      46.234  15.788   0.354  0.00  0.00    +0.150 HD
ATOM     25  O   ASN A   2      48.537  13.691  -0.160  0.00  0.00    -0.273 OA
BRANCH  22  26
ATOM     26  CA  ASN A   2      46.764  13.425   1.311  0.00  0.00    +0.158 C 
BRANCH  26  29
ATOM     27  C   TYR A   1      44.469  14.180   1.501  0.00  0.00    +0.239 C 
ATOM     28  O   TYR A   1      44.775  15.165   2.232  0.00  0.00    -0.274 OA
ATOM     29  N   ASN A   2      45.362  13.303   1.024  0.00  0.00    -0.297 N 
ATOM     30  H   ASN A   2      45.032  12.515   0.431  0.00  0.00    +0.150 HD
BRANCH  27  31
ATOM     31  CA  TYR A   1      43.028  13.824   1.145  0.00  0.00    +0.149 C 
BRANCH  31  32
ATOM     32  N   TYR A   1      42.276  13.610   2.355  0.00  0.00    -0.238 NA
ATOM     33  H   TYR A   1      41.720  14.403   2.733  0.00  0.00    +0.142 HD
ENDBRANCH  31  32
BRANCH  31  34
ATOM     34  CB  TYR A   1      42.355  14.946   0.395  0.00  0.00    +0.053 C 
BRANCH  34  35
ATOM     35  CG  TYR A   1      42.943  15.065  -0.906  0.00  0.00    -0.020 A 
ATOM     36  CD2 TYR A   1      43.657  16.217  -1.243  0.00  0.00    -0.001 A 
ATOM     37  CE2 TYR A   1      44.266  16.341  -2.488  0.00  0.00    +0.036 A 
ATOM     38  CZ  TYR A   1      44.134  15.302  -3.406  0.00  0.00    +0.134 A 
ATOM     39  CE1 TYR A   1      43.393  14.172  -3.105  0.00  0.00    +0.036 A 
ATOM     40  CD1 TYR A   1      42.789  14.052  -1.844  0.00  0.00    -0.001 A 
BRANCH  38  41
ATOM     41  OH  TYR A   1      44.719  15.436  -4.638  0.00  0.00    -0.506 OA
ATOM     42  HH  TYR A   1      44.541  14.625  -5.177  0.00  0.00    +0.292 HD
ENDBRANCH  38  41
ENDBRANCH  34  35
ENDBRANCH  31  34
ENDBRANCH  27  31
ENDBRANCH  26  29
BRANCH  26  43
ATOM     43  CB  ASN A   2      47.432  12.029   1.589  0.00  0.00    +0.114 C 
BRANCH  43  44
ATOM     44  CG  ASN A   2      47.024  11.378   2.917  0.00  0.00    +0.222 C 
ATOM     45  OD1 ASN A   2      46.968  12.011   3.990  0.00  0.00    -0.275 OA
ATOM     46  ND2 ASN A   2      46.707  10.082   2.830  0.00  0.00    -0.329 N 
ATOM     47 HD21 ASN A   2      46.400   9.564   3.678  0.00  0.00    +0.145 HD
ATOM     48 HD22 ASN A   2      46.768   9.592   1.915  0.00  0.00    +0.145 HD
ENDBRANCH  43  44
ENDBRANCH  26  43
ENDBRANCH  22  26
ENDBRANCH  21  23
BRANCH  21  49
ATOM     49  CB  ASN A   3      47.711  15.603  -2.417  0.00  0.00    +0.114 C 
BRANCH  49  50
ATOM     50  CG  ASN A   3      48.972  15.484  -3.297  0.00  0.00    +0.222 C 
ATOM     51  OD1 ASN A   3      49.864  16.326  -3.253  0.00  0.00    -0.275 OA
ATOM     52  ND2 ASN A   3      49.069  14.447  -4.142  0.00  0.00    -0.329 N 
ATOM     53 HD21 ASN A   3      48.313  13.734  -4.179  0.00  0.00    +0.145 HD
ATOM     54 HD22 ASN A   3      49.900  14.356  -4.760  0.00  0.00    +0.145 HD
ENDBRANCH  49  50
ENDBRANCH  21  49
ENDBRANCH  17  21
ENDBRANCH  15  19
ENDBRANCH  11  15
ENDBRANCH  10  13
BRANCH  10  55
ATOM     55  CB  PHE A   5      47.203  20.373  -6.469  0.00  0.00    +0.055 C 
BRANCH  55  56
ATOM     56  CG  PHE A   5      45.719  20.116  -6.278  0.00  0.00    -0.020 A 
ATOM     57  CD2 PHE A   5      45.229  19.260  -5.281  0.00  0.00    -0.004 A 
ATOM     58  CE2 PHE A   5      43.858  18.989  -5.133  0.00  0.00    -0.000 A 
ATOM     59  CZ  PHE A   5      42.953  19.607  -5.988  0.00  0.00    -0.000 A 
ATOM     60  CE1 PHE A   5      43.416  20.480  -6.982  0.00  0.00    -0.000 A 
ATOM     61  CD1 PHE A   5      44.789  20.730  -7.111  0.00  0.00    -0.004 A 
ENDBRANCH  55  56
ENDBRANCH  10  55
ENDBRANCH   6  10
ENDBRANCH   5   8
BRANCH   5  62
ATOM     62  CB  TRP A   6      48.862  25.194  -8.149  0.00  0.00    +0.057 C 
BRANCH  62  63
ATOM     63  CG  TRP A   6      48.556  26.175  -9.236  0.00  0.00    -0.002 A 
ATOM     64  CD2 TRP A   6      47.998  27.476  -9.045  0.00  0.00    +0.013 A 
ATOM     65  CE3 TRP A   6      47.537  28.176  -7.896  0.00  0.00    +0.001 A 
ATOM     66  CZ3 TRP A   6      47.027  29.444  -8.029  0.00  0.00    +0.000 A 
ATOM     67  CH2 TRP A   6      46.890  30.000  -9.287  0.00  0.00    +0.001 A 
ATOM     68  CZ2 TRP A   6      47.351  29.382 -10.434  0.00  0.00    +0.017 A 
ATOM     69  CE2 TRP A   6      47.880  28.077 -10.323  0.00  0.00    +0.056 A 
ATOM     70  NE1 TRP A   6      48.397  27.189 -11.259  0.00  0.00    -0.352 N 
ATOM     71  HE1 TRP A   6      48.468  27.351 -12.284  0.00  0.00    +0.166 HD
ATOM     72  CD1 TRP A   6      48.800  26.052 -10.584  0.00  0.00    +0.068 A 
ENDBRANCH  62  63
ENDBRANCH   5  62
ENDBRANCH   1   5
BRANCH   2  73
ATOM     73  CA  ASN A   7      44.722  23.807 -10.153  0.00  0.00    +0.158 C 
BRANCH  73  74
ATOM     74  C   ASN A   7      44.652  24.662 -11.410  0.00  0.00    +0.241 C 
ATOM     75  N   GLY A   8      45.589  25.646 -11.543  0.00  0.00    -0.295 N 
ATOM     76  H   GLY A   8      46.292  25.767 -10.787  0.00  0.00    +0.150 HD
ATOM     77  O   ASN A   7      43.778  24.435 -12.217  0.00  0.00    -0.273 OA
BRANCH  75  78
ATOM     78  CA  GLY A   8      45.648  26.532 -12.694  0.00  0.00    +0.176 C 
BRANCH  78  79
ATOM     79  C   GLY A   8      44.876  27.821 -12.364  0.00  0.00    +0.246 C 
ATOM     80  N   SER A   9      44.141  27.757 -11.231  0.00  0.00    -0.280 N 
ATOM     81  CA  SER A   9      43.413  28.894 -10.696  0.00  0.00    +0.111 C 
ATOM     82  H   SER A   9      44.095  26.853 -10.720  0.00  0.00    +0.155 HD
ATOM     83  O   GLY A   8      44.958  28.839 -13.073  0.00  0.00    -0.273 OA
BRANCH  81  84
ATOM     84  C   SER A   9      43.466  29.233  -9.240  0.00  0.00    +0.258 C 
ATOM     85  N   GLU A  10      43.715  28.323  -8.372  0.00  0.00    -0.294 N 
ATOM     86  H   GLU A  10      43.912  27.366  -8.729  0.00  0.00    +0.150 HD
ATOM     87  O   SER A   9      43.303  30.371  -8.951  0.00  0.00    -0.269 OA
BRANCH  85  88
ATOM     88  CA  GLU A  10      43.745  28.513  -6.936  0.00  0.00    +0.149 C 
BRANCH  88  89
ATOM     89  C   GLU A  10      44.517  27.346  -6.355  0.00  0.00    +0.241 C 
ATOM     90  N   MET A  11      44.840  27.477  -5.082  0.00  0.00    -0.297 N 
ATOM     91  H   MET A  11      44.577  28.364  -4.607  0.00  0.00    +0.150 HD
ATOM     92  O   GLU A  10      44.775  26.344  -7.026  0.00  0.00    -0.273 OA
BRANCH  90  93
ATOM     93  CA  MET A  11      45.521  26.495  -4.312  0.00  0.00    +0.149 C 
BRANCH  93  94
ATOM     94  C   MET A  11      44.454  25.681  -3.583  0.00  0.00    +0.241 C 
ATOM     95  O   MET A  11      43.442  26.227  -3.225  0.00  0.00    -0.273 OA
ATOM     96  N   VAL A  12      44.672  24.370  -3.368  0.00  0.00    -0.297 N 
ATOM     97  H   VAL A  12      45.570  23.974  -3.713  0.00  0.00    +0.150 HD
BRANCH  96  98
ATOM     98  CA  VAL A  12      43.756  23.458  -2.693  0.00  0.00    +0.149 C 
BRANCH  98  99
ATOM     99  C   VAL A  12      44.509  22.616  -1.708  0.00  0.00    +0.241 C 
ATOM    100  N   TYR A  13      43.967  22.478  -0.489  0.00  0.00    -0.297 N 
ATOM    101  H   TYR A  13      43.054  22.927  -0.274  0.00  0.00    +0.150 HD
ATOM    102  O   VAL A  12      45.565  22.085  -2.074  0.00  0.00    -0.273 OA
BRANCH 100 103
ATOM    103  CA  TYR A  13      44.669  21.683   0.558  0.00  0.00    +0.153 C 
BRANCH 103 104
ATOM    104  C   TYR A  13      43.802  20.649   1.219  0.00  0.00    +0.241 C 
ATOM    105  O   TYR A  13      42.726  20.983   1.709  0.00  0.00    -0.273 OA
ATOM    106  N   GLY A  14      44.317  19.386   1.270  0.00  0.00    -0.296 N 
ATOM    107  H   GLY A  14      45.241  19.194   0.833  0.00  0.00    +0.150 HD
BRANCH 106 108
ATOM    108  CA  GLY A  14      43.604  18.312   1.919  0.00  0.00    +0.163 C 
BRANCH 108 109
ATOM    109  C   GLY A  14      43.892  18.459   3.412  0.00  0.00    +0.229 C 
ATOM    110  O   GLY A  14      44.790  19.247   3.753  0.00  0.00    -0.286 OA
ENDBRANCH 108 109
ENDBRANCH 106 108
ENDBRANCH 103 104
BRANCH 103 111
ATOM    111  CB  TYR A  13      45.193  22.547   1.779  0.00  0.00    +0.055 C 
BRANCH 111 112
ATOM    112  CG  TYR A  13      46.119  23.679   1.306  0.00  0.00    -0.020 A 
ATOM    113  CD2 TYR A  13      47.488  23.431   1.139  0.00  0.00    -0.001 A 
ATOM    114  CE2 TYR A  13      48.409  24.361   0.663  0.00  0.00    +0.036 A 
ATOM    115  CZ  TYR A  13      47.959  25.639   0.303  0.00  0.00    +0.134 A 
ATOM    116  CE1 TYR A  13      46.600  25.904   0.438  0.00  0.00    +0.036 A 
ATOM    117  CD1 TYR A  13      45.677  24.959   0.939  0.00  0.00    -0.001 A 
BRANCH 115 118
ATOM    118  OH  TYR A  13      48.833  26.575  -0.223  0.00  0.00    -0.506 OA
ATOM    119  HH  TYR A  13      48.341  27.412  -0.416  0.00  0.00    +0.292 HD
ENDBRANCH 115 118
ENDBRANCH 111 112
ENDBRANCH 103 111
ENDBRANCH 100 103
ENDBRANCH  98  99
BRANCH  98 120
ATOM    120  CB  VAL A  12      43.073  22.544  -3.742  0.00  0.00    +0.027 C 
ATOM    121  CG2 VAL A  12      42.041  21.576  -3.045  0.00  0.00    +0.002 C 
ATOM    122  CG1 VAL A  12      42.499  23.458  -4.883  0.00  0.00    +0.002 C 
ENDBRANCH  98 120
ENDBRANCH  96  98
ENDBRANCH  93  94
BRANCH  93 123
ATOM    123  CB  MET A  11      46.450  27.215  -3.315  0.00  0.00    +0.041 C 
BRANCH 123 124
ATOM    124  CG  MET A  11      47.655  27.807  -4.092  0.00  0.00    +0.060 C 
BRANCH 124 125
ATOM    125  SD  MET A  11      48.714  28.581  -2.871  0.00  0.00    -0.139 S 
ATOM    126  CE  MET A  11      47.790  30.134  -2.615  0.00  0.00    +0.069 C 
ENDBRANCH 124 125
ENDBRANCH 123 124
ENDBRANCH  93 123
ENDBRANCH  90  93
ENDBRANCH  88  89
BRANCH  88 127
ATOM    127  CB  GLU A  10      42.316  28.563  -6.353  0.00  0.00    +0.041 C 
BRANCH 127 128
ATOM    128  CG  GLU A  10      41.497  27.289  -6.659  0.00  0.00    +0.116 C 
BRANCH 128 129
ATOM    129  CD  GLU A  10      40.331  27.156  -5.782  0.00  0.00    +0.365 C 
ATOM    130  OE2 GLU A  10      40.538  26.923  -4.461  0.00  0.00    -0.246 OA
ATOM    131  OE1 GLU A  10      39.280  27.293  -6.290  0.00  0.00    -0.246 OA
ENDBRANCH 128 129
ENDBRANCH 127 128
ENDBRANCH  88 127
ENDBRANCH  85  88
ENDBRANCH  81  84
BRANCH  81 132
ATOM    132  CB  SER A   9      42.116  29.364 -11.216  0.00  0.00    +0.183 C 
BRANCH 132 133
ATOM    133  OG  SER A   9      41.317  28.341 -11.582  0.00  0.00    -0.376 OA
ATOM    134  H   SER A   9      40.460  28.699 -11.924  0.00  0.00    +0.211 HD
ENDBRANCH 132 133
ENDBRANCH  81 132
ENDBRANCH  78  79
ENDBRANCH  75  78
ENDBRANCH  73  74
BRANCH  73 135
ATOM    135  CB  ASN A   7      43.326  23.430  -9.611  0.00  0.00    +0.114 C 
BRANCH 135 136
ATOM    136  CG  ASN A   7      42.364  24.613  -9.468  0.00  0.00    +0.222 C 
ATOM    137  ND2 ASN A   7      41.077  24.404  -9.384  0.00  0.00    -0.329 N 
ATOM    138 HD21 ASN A   7      40.710  23.432  -9.331  0.00  0.00    +0.145 HD
ATOM    139 HD22 ASN A   7      40.419  25.209  -9.370  0.00  0.00    +0.145 HD
ATOM    140  OD1 ASN A   7      42.800  25.738  -9.530  0.00  0.00    -0.275 OA
ENDBRANCH 135 136
ENDBRANCH  73 135
ENDBRANCH   2  73
TORSDOF 52
REMARK  Name = ../refined-set-2016/4tmn/4tmn_pocket.pdb
REMARK  240 active torsions:
REMARK  status: ('A' for Active; 'I' for Inactive)
REMARK    1  A    between atoms: _1  and  _3
REMARK    2  A    between atoms: _3  and  _4
REMARK    3  A    between atoms: _3  and  _6
REMARK    4  A    between atoms: _6  and  _7
REMARK    5  A    between atoms: _12  and  _13
REMARK    6  A    between atoms: _15  and  _17
REMARK    7  A    between atoms: _17  and  _18
REMARK    8  A    between atoms: _17  and  _20
REMARK    9  A    between atoms: _20  and  _21
REMARK   10  A    between atoms: _26  and  _27
REMARK   11  A    between atoms: _29  and  _31
REMARK   12  A    between atoms: _31  and  _32
REMARK   13  A    between atoms: _31  and  _34
REMARK   14  A    between atoms: _34  and  _35
REMARK   15  A    between atoms: _40  and  _42
REMARK   16  A    between atoms: _42  and  _43
REMARK   17  A    between atoms: _42  and  _45
REMARK   18  A    between atoms: _45  and  _46
REMARK   19  A    between atoms: _51  and  _53
REMARK   20  A    between atoms: _53  and  _54
REMARK   21  A    between atoms: _57  and  _59
REMARK   22  A    between atoms: _59  and  _60
REMARK   23  A    between atoms: _59  and  _62
REMARK   24  A    between atoms: _62  and  _63
REMARK   25  A    between atoms: _69  and  _71
REMARK   26  A    between atoms: _71  and  _72
REMARK   27  A    between atoms: _71  and  _74
REMARK   28  A    between atoms: _74  and  _75
REMARK   29  A    between atoms: _85  and  _87
REMARK   30  A    between atoms: _87  and  _88
REMARK   31  A    between atoms: _87  and  _90
REMARK   32  A    between atoms: _90  and  _91
REMARK   33  A    between atoms: _96  and  _98
REMARK   34  A    between atoms: _98  and  _99
REMARK   35  A    between atoms: _103  and  _104
REMARK   36  A    between atoms: _103  and  _106
REMARK   37  A    between atoms: _106  and  _107
REMARK   38  A    between atoms: _109  and  _111
REMARK   39  A    between atoms: _111  and  _112
REMARK   40  A    between atoms: _111  and  _114
REMARK   41  A    between atoms: _114  and  _115
REMARK   42  A    between atoms: _115  and  _116
REMARK   43  A    between atoms: _119  and  _121
REMARK   44  A    between atoms: _121  and  _122
REMARK   45  A    between atoms: _121  and  _124
REMARK   46  A    between atoms: _124  and  _125
REMARK   47  A    between atoms: _125  and  _126
REMARK   48  A    between atoms: _128  and  _130
REMARK   49  A    between atoms: _130  and  _131
REMARK   50  A    between atoms: _130  and  _133
REMARK   51  A    between atoms: _136  and  _138
REMARK   52  A    between atoms: _138  and  _139
REMARK   53  A    between atoms: _138  and  _141
REMARK   54  A    between atoms: _141  and  _142
REMARK   55  A    between atoms: _147  and  _148
REMARK   56  A    between atoms: _150  and  _152
REMARK   57  A    between atoms: _152  and  _153
REMARK   58  A    between atoms: _155  and  _157
REMARK   59  A    between atoms: _157  and  _158
REMARK   60  A    between atoms: _157  and  _160
REMARK   61  A    between atoms: _160  and  _161
REMARK   62  A    between atoms: _164  and  _166
REMARK   63  A    between atoms: _166  and  _167
REMARK   64  A    between atoms: _166  and  _169
REMARK   65  A    between atoms: _169  and  _170
REMARK   66  A    between atoms: _176  and  _178
REMARK   67  A    between atoms: _178  and  _179
REMARK   68  A    between atoms: _178  and  _181
REMARK   69  A    between atoms: _181  and  _182
REMARK   70  A    between atoms: _185  and  _187
REMARK   71  A    between atoms: _187  and  _188
REMARK   72  A    between atoms: _190  and  _192
REMARK   73  A    between atoms: _192  and  _193
REMARK   74  A    between atoms: _192  and  _195
REMARK   75  A    between atoms: _195  and  _196
REMARK   76  A    between atoms: _199  and  _201
REMARK   77  A    between atoms: _201  and  _202
REMARK   78  A    between atoms: _201  and  _204
REMARK   79  A    between atoms: _207  and  _209
REMARK   80  A    between atoms: _209  and  _210
REMARK   81  A    between atoms: _209  and  _212
REMARK   82  A    between atoms: _215  and  _217
REMARK   83  A    between atoms: _217  and  _218
REMARK   84  A    between atoms: _221  and  _223
REMARK   85  A    between atoms: _234  and  _237
REMARK   86  A    between atoms: _237  and  _238
REMARK   87  A    between atoms: _238  and  _239
REMARK   88  A    between atoms: _244  and  _247
REMARK   89  A    between atoms: _247  and  _248
REMARK   90  A    between atoms: _253  and  _256
REMARK   91  A    between atoms: _256  and  _257
REMARK   92  A    between atoms: _262  and  _263
REMARK   93  A    between atoms: _271  and  _273
REMARK   94  A    between atoms: _273  and  _274
REMARK   95  A    between atoms: _277  and  _279
REMARK   96  A    between atoms: _279  and  _280
REMARK   97  A    between atoms: _279  and  _282
REMARK   98  A    between atoms: _282  and  _283
REMARK   99  A    between atoms: _286  and  _288
REMARK  100  A    between atoms: _288  and  _289
REMARK  101  A    between atoms: _288  and  _291
REMARK  102  A    between atoms: _291  and  _292
REMARK  103  A    between atoms: _295  and  _297
REMARK  104  A    between atoms: _297  and  _298
REMARK  105  A    between atoms: _300  and  _302
REMARK  106  A    between atoms: _302  and  _303
REMARK  107  A    between atoms: _302  and  _305
REMARK  108  A    between atoms: _305  and  _306
REMARK  109  A    between atoms: _309  and  _311
REMARK  110  A    between atoms: _311  and  _312
REMARK  111  A    between atoms: _311  and  _314
REMARK  112  A    between atoms: _314  and  _315
REMARK  113  A    between atoms: _318  and  _320
REMARK  114  A    between atoms: _320  and  _321
REMARK  115  A    between atoms: _320  and  _323
REMARK  116  A    between atoms: _323  and  _324
REMARK  117  A    between atoms: _329  and  _330
REMARK  118  A    between atoms: _332  and  _334
REMARK  119  A    between atoms: _334  and  _335
REMARK  120  A    between atoms: _334  and  _337
REMARK  121  A    between atoms: _337  and  _338
REMARK  122  A    between atoms: _338  and  _339
REMARK  123  A    between atoms: _344  and  _346
REMARK  124  A    between atoms: _346  and  _347
REMARK  125  A    between atoms: _349  and  _351
REMARK  126  A    between atoms: _351  and  _352
REMARK  127  A    between atoms: _351  and  _354
REMARK  128  A    between atoms: _354  and  _355
REMARK  129  A    between atoms: _360  and  _362
REMARK  130  A    between atoms: _362  and  _363
REMARK  131  A    between atoms: _362  and  _365
REMARK  132  A    between atoms: _365  and  _366
REMARK  133  A    between atoms: _366  and  _367
REMARK  134  A    between atoms: _367  and  _368
REMARK  135  A    between atoms: _368  and  ZN_631
REMARK  136  A    between atoms: _370  and  _372
REMARK  137  A    between atoms: _372  and  _373
REMARK  138  A    between atoms: _372  and  _375
REMARK  139  A    between atoms: _375  and  _376
REMARK  140  A    between atoms: _378  and  _380
REMARK  141  A    between atoms: _380  and  _381
REMARK  142  A    between atoms: _380  and  _383
REMARK  143  A    between atoms: _383  and  _384
REMARK  144  A    between atoms: _387  and  _389
REMARK  145  A    between atoms: _389  and  _390
REMARK  146  A    between atoms: _392  and  _394
REMARK  147  A    between atoms: _394  and  _395
REMARK  148  A    between atoms: _394  and  _397
REMARK  149  A    between atoms: _397  and  _398
REMARK  150  A    between atoms: _401  and  _403
REMARK  151  A    between atoms: _403  and  _404
REMARK  152  A    between atoms: _406  and  _408
REMARK  153  A    between atoms: _408  and  _409
REMARK  154  A    between atoms: _408  and  _411
REMARK  155  A    between atoms: _411  and  _412
REMARK  156  A    between atoms: _412  and  _413
REMARK  157  A    between atoms: _416  and  _418
REMARK  158  A    between atoms: _418  and  _419
REMARK  159  A    between atoms: _418  and  _421
REMARK  160  A    between atoms: _424  and  _426
REMARK  161  A    between atoms: _426  and  _427
REMARK  162  A    between atoms: _426  and  _429
REMARK  163  A    between atoms: _429  and  _430
REMARK  164  A    between atoms: _435  and  _436
REMARK  165  A    between atoms: _438  and  _440
REMARK  166  A    between atoms: _440  and  _441
REMARK  167  A    between atoms: _440  and  _443
REMARK  168  A    between atoms: _443  and  _444
REMARK  169  A    between atoms: _447  and  _449
REMARK  170  A    between atoms: _449  and  _450
REMARK  171  A    between atoms: _449  and  _452
REMARK  172  A    between atoms: _452  and  _453
REMARK  173  A    between atoms: _453  and  _454
REMARK  174  A    between atoms: _454  and  _455
REMARK  175  A    between atoms: _464  and  _466
REMARK  176  A    between atoms: _466  and  _467
REMARK  177  A    between atoms: _466  and  _469
REMARK  178  A    between atoms: _469  and  _470
REMARK  179  A    between atoms: _473  and  _475
REMARK  180  A    between atoms: _475  and  _476
REMARK  181  A    between atoms: _475  and  _478
REMARK  182  A    between atoms: _478  and  _479
REMARK  183  A    between atoms: _484  and  _486
REMARK  184  A    between atoms: _486  and  _487
REMARK  185  A    between atoms: _486  and  _489
REMARK  186  A    between atoms: _492  and  _494
REMARK  187  A    between atoms: _494  and  _495
REMARK  188  A    between atoms: _494  and  _497
REMARK  189  A    between atoms: _497  and  _498
REMARK  190  A    between atoms: _503  and  _505
REMARK  191  A    between atoms: _505  and  _506
REMARK  192  A    between atoms: _505  and  _508
REMARK  193  A    between atoms: _508  and  _509
REMARK  194  A    between atoms: _512  and  _514
REMARK  195  A    between atoms: _514  and  _515
REMARK  196  A    between atoms: _514  and  _517
REMARK  197  A    between atoms: _517  and  _518
REMARK  198  A    between atoms: _520  and  _522
REMARK  199  A    between atoms: _522  and  _523
REMARK  200  A    between atoms: _522  and  _525
REMARK  201  A    between atoms: _525  and  _526
REMARK  202  A    between atoms: _526  and  _527
REMARK  203  A    between atoms: _527  and  _528
REMARK  204  A    between atoms: _537  and  _539
REMARK  205  A    between atoms: _539  and  _540
REMARK  206  A    between atoms: _539  and  _542
REMARK  207  A    between atoms: _542  and  _543
REMARK  208  A    between atoms: _546  and  _548
REMARK  209  A    between atoms: _548  and  _549
REMARK  210  A    between atoms: _548  and  _551
REMARK  211  A    between atoms: _551  and  _552
REMARK  212  A    between atoms: _555  and  _557
REMARK  213  A    between atoms: _557  and  _558
REMARK  214  A    between atoms: _557  and  _560
REMARK  215  A    between atoms: _560  and  _561
REMARK  216  A    between atoms: _564  and  _566
REMARK  217  A    between atoms: _566  and  _567
REMARK  218  A    between atoms: _566  and  _569
REMARK  219  A    between atoms: _569  and  _570
REMARK  220  A    between atoms: _575  and  _576
REMARK  221  A    between atoms: _578  and  _580
REMARK  222  A    between atoms: _580  and  _581
REMARK  223  A    between atoms: _580  and  _583
REMARK  224  A    between atoms: _583  and  _584
REMARK  225  A    between atoms: _586  and  _588
REMARK  226  A    between atoms: _588  and  _589
REMARK  227  A    between atoms: _588  and  _591
REMARK  228  A    between atoms: _591  and  _592
REMARK  229  A    between atoms: _597  and  _598
REMARK  230  A    between atoms: _600  and  _602
REMARK  231  A    between atoms: _602  and  _603
REMARK  232  A    between atoms: _602  and  _605
REMARK  233  A    between atoms: _605  and  _606
REMARK  234  A    between atoms: _612  and  _614
REMARK  235  A    between atoms: _614  and  _615
REMARK  236  A    between atoms: _614  and  _617
REMARK  237  A    between atoms: _620  and  _622
REMARK  238  A    between atoms: _622  and  _623
REMARK  239  A    between atoms: _622  and  _625
REMARK  240  A    between atoms: _625  and  _626
REMARK                            x       y       z     vdW  Elec       q    Type
REMARK                         _______ _______ _______ _____ _____    ______ ____
ROOT
ATOM      1  C   THR A   1      50.769  11.562   6.627  0.00  0.00    +0.241 C 
ATOM      2  N   PHE A   2      49.703  12.351   6.765  0.00  0.00    -0.298 N 
ATOM      3  H   PHE A   2      48.765  11.915   6.873  0.00  0.00    +0.150 HD
ATOM      4  O   THR A   1      51.861  12.043   6.454  0.00  0.00    -0.274 OA
ENDROOT
BRANCH   1   5
ATOM      5  CA  THR A   1      50.557  10.044   6.627  0.00  0.00    +0.172 C 
BRANCH   5   6
ATOM      6  N   THR A   1      49.551   9.799   7.565  0.00  0.00    -0.236 NA
ATOM      7  H   THR A   1      48.553   9.714   7.285  0.00  0.00    +0.142 HD
ENDBRANCH   5   6
BRANCH   5   8
ATOM      8  CB  THR A   1      50.023   9.597   5.262  0.00  0.00    +0.135 C 
ATOM      9  CG2 THR A   1      50.955   9.813   4.049  0.00  0.00    +0.034 C 
BRANCH   8  10
ATOM     10  OG1 THR A   1      49.378   8.330   5.319  0.00  0.00    -0.383 OA
ATOM     11  HG1 THR A   1      48.613   8.378   5.946  0.00  0.00    +0.210 HD
ENDBRANCH   8  10
ENDBRANCH   5   8
ENDBRANCH   1   5
BRANCH   2  12
ATOM     12  CA  PHE A   2      49.810  13.807   6.770  0.00  0.00    +0.141 C 
BRANCH  12  13
ATOM     13  C   PHE A   2      48.770  14.337   7.706  0.00  0.00    +0.227 C 
ATOM     14  O   PHE A   2      47.745  13.670   7.924  0.00  0.00    -0.286 OA
ENDBRANCH  12  13
BRANCH  12  15
ATOM     15  CB  PHE A   2      49.376  14.433   5.405  0.00  0.00    +0.054 C 
BRANCH  15  16
ATOM     16  CG  PHE A   2      50.452  14.512   4.374  0.00  0.00    -0.020 A 
ATOM     17  CD2 PHE A   2      51.517  15.408   4.500  0.00  0.00    -0.004 A 
ATOM     18  CE2 PHE A   2      52.488  15.429   3.498  0.00  0.00    -0.000 A 
ATOM     19  CZ  PHE A   2      52.396  14.588   2.386  0.00  0.00    -0.000 A 
ATOM     20  CE1 PHE A   2      51.345  13.683   2.243  0.00  0.00    -0.000 A 
ATOM     21  CD1 PHE A   2      50.371  13.683   3.257  0.00  0.00    -0.004 A 
ENDBRANCH  15  16
ENDBRANCH  12  15
ENDBRANCH   2  12
TORSDOF 8
REMARK  Name = ../refined-set-2016/4tmn/4tmn_pocket.pdb
REMARK  240 active torsions:
REMARK  status: ('A' for Active; 'I' for Inactive)
REMARK    1  A    between atoms: _1  and  _3
REMARK    2  A    between atoms: _3  and  _4
REMARK    3  A    between atoms: _3  and  _6
REMARK    4  A    between atoms: _6  and  _7
REMARK    5  A    between atoms: _12  and  _13
REMARK    6  A    between atoms: _15  and  _17
REMARK    7  A    between atoms: _17  and  _18
REMARK    8  A    between atoms: _17  and  _20
REMARK    9  A    between atoms: _20  and  _21
REMARK   10  A    between atoms: _26  and  _27
REMARK   11  A    between atoms: _29  and  _31
REMARK   12  A    between atoms: _31  and  _32
REMARK   13  A    between atoms: _31  and  _34
REMARK   14  A    between atoms: _34  and  _35
REMARK   15  A    between atoms: _40  and  _42
REMARK   16  A    between atoms: _42  and  _43
REMARK   17  A    between atoms: _42  and  _45
REMARK   18  A    between atoms: _45  and  _46
REMARK   19  A    between atoms: _51  and  _53
REMARK   20  A    between atoms: _53  and  _54
REMARK   21  A    between atoms: _57  and  _59
REMARK   22  A    between atoms: _59  and  _60
REMARK   23  A    between atoms: _59  and  _62
REMARK   24  A    between atoms: _62  and  _63
REMARK   25  A    between atoms: _69  and  _71
REMARK   26  A    between atoms: _71  and  _72
REMARK   27  A    between atoms: _71  and  _74
REMARK   28  A    between atoms: _74  and  _75
REMARK   29  A    between atoms: _85  and  _87
REMARK   30  A    between atoms: _87  and  _88
REMARK   31  A    between atoms: _87  and  _90
REMARK   32  A    between atoms: _90  and  _91
REMARK   33  A    between atoms: _96  and  _98
REMARK   34  A    between atoms: _98  and  _99
REMARK   35  A    between atoms: _103  and  _104
REMARK   36  A    between atoms: _103  and  _106
REMARK   37  A    between atoms: _106  and  _107
REMARK   38  A    between atoms: _109  and  _111
REMARK   39  A    between atoms: _111  and  _112
REMARK   40  A    between atoms: _111  and  _114
REMARK   41  A    between atoms: _114  and  _115
REMARK   42  A    between atoms: _115  and  _116
REMARK   43  A    between atoms: _119  and  _121
REMARK   44  A    between atoms: _121  and  _122
REMARK   45  A    between atoms: _121  and  _124
REMARK   46  A    between atoms: _124  and  _125
REMARK   47  A    between atoms: _125  and  _126
REMARK   48  A    between atoms: _128  and  _130
REMARK   49  A    between atoms: _130  and  _131
REMARK   50  A    between atoms: _130  and  _133
REMARK   51  A    between atoms: _136  and  _138
REMARK   52  A    between atoms: _138  and  _139
REMARK   53  A    between atoms: _138  and  _141
REMARK   54  A    between atoms: _141  and  _142
REMARK   55  A    between atoms: _147  and  _148
REMARK   56  A    between atoms: _150  and  _152
REMARK   57  A    between atoms: _152  and  _153
REMARK   58  A    between atoms: _155  and  _157
REMARK   59  A    between atoms: _157  and  _158
REMARK   60  A    between atoms: _157  and  _160
REMARK   61  A    between atoms: _160  and  _161
REMARK   62  A    between atoms: _164  and  _166
REMARK   63  A    between atoms: _166  and  _167
REMARK   64  A    between atoms: _166  and  _169
REMARK   65  A    between atoms: _169  and  _170
REMARK   66  A    between atoms: _176  and  _178
REMARK   67  A    between atoms: _178  and  _179
REMARK   68  A    between atoms: _178  and  _181
REMARK   69  A    between atoms: _181  and  _182
REMARK   70  A    between atoms: _185  and  _187
REMARK   71  A    between atoms: _187  and  _188
REMARK   72  A    between atoms: _190  and  _192
REMARK   73  A    between atoms: _192  and  _193
REMARK   74  A    between atoms: _192  and  _195
REMARK   75  A    between atoms: _195  and  _196
REMARK   76  A    between atoms: _199  and  _201
REMARK   77  A    between atoms: _201  and  _202
REMARK   78  A    between atoms: _201  and  _204
REMARK   79  A    between atoms: _207  and  _209
REMARK   80  A    between atoms: _209  and  _210
REMARK   81  A    between atoms: _209  and  _212
REMARK   82  A    between atoms: _215  and  _217
REMARK   83  A    between atoms: _217  and  _218
REMARK   84  A    between atoms: _221  and  _223
REMARK   85  A    between atoms: _234  and  _237
REMARK   86  A    between atoms: _237  and  _238
REMARK   87  A    between atoms: _238  and  _239
REMARK   88  A    between atoms: _244  and  _247
REMARK   89  A    between atoms: _247  and  _248
REMARK   90  A    between atoms: _253  and  _256
REMARK   91  A    between atoms: _256  and  _257
REMARK   92  A    between atoms: _262  and  _263
REMARK   93  A    between atoms: _271  and  _273
REMARK   94  A    between atoms: _273  and  _274
REMARK   95  A    between atoms: _277  and  _279
REMARK   96  A    between atoms: _279  and  _280
REMARK   97  A    between atoms: _279  and  _282
REMARK   98  A    between atoms: _282  and  _283
REMARK   99  A    between atoms: _286  and  _288
REMARK  100  A    between atoms: _288  and  _289
REMARK  101  A    between atoms: _288  and  _291
REMARK  102  A    between atoms: _291  and  _292
REMARK  103  A    between atoms: _295  and  _297
REMARK  104  A    between atoms: _297  and  _298
REMARK  105  A    between atoms: _300  and  _302
REMARK  106  A    between atoms: _302  and  _303
REMARK  107  A    between atoms: _302  and  _305
REMARK  108  A    between atoms: _305  and  _306
REMARK  109  A    between atoms: _309  and  _311
REMARK  110  A    between atoms: _311  and  _312
REMARK  111  A    between atoms: _311  and  _314
REMARK  112  A    between atoms: _314  and  _315
REMARK  113  A    between atoms: _318  and  _320
REMARK  114  A    between atoms: _320  and  _321
REMARK  115  A    between atoms: _320  and  _323
REMARK  116  A    between atoms: _323  and  _324
REMARK  117  A    between atoms: _329  and  _330
REMARK  118  A    between atoms: _332  and  _334
REMARK  119  A    between atoms: _334  and  _335
REMARK  120  A    between atoms: _334  and  _337
REMARK  121  A    between atoms: _337  and  _338
REMARK  122  A    between atoms: _338  and  _339
REMARK  123  A    between atoms: _344  and  _346
REMARK  124  A    between atoms: _346  and  _347
REMARK  125  A    between atoms: _349  and  _351
REMARK  126  A    between atoms: _351  and  _352
REMARK  127  A    between atoms: _351  and  _354
REMARK  128  A    between atoms: _354  and  _355
REMARK  129  A    between atoms: _360  and  _362
REMARK  130  A    between atoms: _362  and  _363
REMARK  131  A    between atoms: _362  and  _365
REMARK  132  A    between atoms: _365  and  _366
REMARK  133  A    between atoms: _366  and  _367
REMARK  134  A    between atoms: _367  and  _368
REMARK  135  A    between atoms: _368  and  ZN_631
REMARK  136  A    between atoms: _370  and  _372
REMARK  137  A    between atoms: _372  and  _373
REMARK  138  A    between atoms: _372  and  _375
REMARK  139  A    between atoms: _375  and  _376
REMARK  140  A    between atoms: _378  and  _380
REMARK  141  A    between atoms: _380  and  _381
REMARK  142  A    between atoms: _380  and  _383
REMARK  143  A    between atoms: _383  and  _384
REMARK  144  A    between atoms: _387  and  _389
REMARK  145  A    between atoms: _389  and  _390
REMARK  146  A    between atoms: _392  and  _394
REMARK  147  A    between atoms: _394  and  _395
REMARK  148  A    between atoms: _394  and  _397
REMARK  149  A    between atoms: _397  and  _398
REMARK  150  A    between atoms: _401  and  _403
REMARK  151  A    between atoms: _403  and  _404
REMARK  152  A    between atoms: _406  and  _408
REMARK  153  A    between atoms: _408  and  _409
REMARK  154  A    between atoms: _408  and  _411
REMARK  155  A    between atoms: _411  and  _412
REMARK  156  A    between atoms: _412  and  _413
REMARK  157  A    between atoms: _416  and  _418
REMARK  158  A    between atoms: _418  and  _419
REMARK  159  A    between atoms: _418  and  _421
REMARK  160  A    between atoms: _424  and  _426
REMARK  161  A    between atoms: _426  and  _427
REMARK  162  A    between atoms: _426  and  _429
REMARK  163  A    between atoms: _429  and  _430
REMARK  164  A    between atoms: _435  and  _436
REMARK  165  A    between atoms: _438  and  _440
REMARK  166  A    between atoms: _440  and  _441
REMARK  167  A    between atoms: _440  and  _443
REMARK  168  A    between atoms: _443  and  _444
REMARK  169  A    between atoms: _447  and  _449
REMARK  170  A    between atoms: _449  and  _450
REMARK  171  A    between atoms: _449  and  _452
REMARK  172  A    between atoms: _452  and  _453
REMARK  173  A    between atoms: _453  and  _454
REMARK  174  A    between atoms: _454  and  _455
REMARK  175  A    between atoms: _464  and  _466
REMARK  176  A    between atoms: _466  and  _467
REMARK  177  A    between atoms: _466  and  _469
REMARK  178  A    between atoms: _469  and  _470
REMARK  179  A    between atoms: _473  and  _475
REMARK  180  A    between atoms: _475  and  _476
REMARK  181  A    between atoms: _475  and  _478
REMARK  182  A    between atoms: _478  and  _479
REMARK  183  A    between atoms: _484  and  _486
REMARK  184  A    between atoms: _486  and  _487
REMARK  185  A    between atoms: _486  and  _489
REMARK  186  A    between atoms: _492  and  _494
REMARK  187  A    between atoms: _494  and  _495
REMARK  188  A    between atoms: _494  and  _497
REMARK  189  A    between atoms: _497  and  _498
REMARK  190  A    between atoms: _503  and  _505
REMARK  191  A    between atoms: _505  and  _506
REMARK  192  A    between atoms: _505  and  _508
REMARK  193  A    between atoms: _508  and  _509
REMARK  194  A    between atoms: _512  and  _514
REMARK  195  A    between atoms: _514  and  _515
REMARK  196  A    between atoms: _514  and  _517
REMARK  197  A    between atoms: _517  and  _518
REMARK  198  A    between atoms: _520  and  _522
REMARK  199  A    between atoms: _522  and  _523
REMARK  200  A    between atoms: _522  and  _525
REMARK  201  A    between atoms: _525  and  _526
REMARK  202  A    between atoms: _526  and  _527
REMARK  203  A    between atoms: _527  and  _528
REMARK  204  A    between atoms: _537  and  _539
REMARK  205  A    between atoms: _539  and  _540
REMARK  206  A    between atoms: _539  and  _542
REMARK  207  A    between atoms: _542  and  _543
REMARK  208  A    between atoms: _546  and  _548
REMARK  209  A    between atoms: _548  and  _549
REMARK  210  A    between atoms: _548  and  _551
REMARK  211  A    between atoms: _551  and  _552
REMARK  212  A    between atoms: _555  and  _557
REMARK  213  A    between atoms: _557  and  _558
REMARK  214  A    between atoms: _557  and  _560
REMARK  215  A    between atoms: _560  and  _561
REMARK  216  A    between atoms: _564  and  _566
REMARK  217  A    between atoms: _566  and  _567
REMARK  218  A    between atoms: _566  and  _569
REMARK  219  A    between atoms: _569  and  _570
REMARK  220  A    between atoms: _575  and  _576
REMARK  221  A    between atoms: _578  and  _580
REMARK  222  A    between atoms: _580  and  _581
REMARK  223  A    between atoms: _580  and  _583
REMARK  224  A    between atoms: _583  and  _584
REMARK  225  A    between atoms: _586  and  _588
REMARK  226  A    between atoms: _588  and  _589
REMARK  227  A    between atoms: _588  and  _591
REMARK  228  A    between atoms: _591  and  _592
REMARK  229  A    between atoms: _597  and  _598
REMARK  230  A    between atoms: _600  and  _602
REMARK  231  A    between atoms: _602  and  _603
REMARK  232  A    between atoms: _602  and  _605
REMARK  233  A    between atoms: _605  and  _606
REMARK  234  A    between atoms: _612  and  _614
REMARK  235  A    between atoms: _614  and  _615
REMARK  236  A    between atoms: _614  and  _617
REMARK  237  A    between atoms: _620  and  _622
REMARK  238  A    between atoms: _622  and  _623
REMARK  239  A    between atoms: _622  and  _625
REMARK  240  A    between atoms: _625  and  _626
REMARK                            x       y       z     vdW  Elec       q    Type
REMARK                         _______ _______ _______ _____ _____    ______ ____
ROOT
ATOM      1  CA  LEU A   1      48.764  20.361   4.436  0.00  0.00    +0.133 C 
ENDROOT
BRANCH   1   2
ATOM      2  N   LEU A   1      47.646  19.891   5.223  0.00  0.00    -0.239 NA
ATOM      3  H   LEU A   1      46.851  19.424   4.742  0.00  0.00    +0.142 HD
ENDBRANCH   1   2
BRANCH   1   4
ATOM      4  C   LEU A   1      49.235  21.816   4.477  0.00  0.00    +0.224 C 
ATOM      5  O   LEU A   1      50.427  22.140   4.306  0.00  0.00    -0.287 OA
ENDBRANCH   1   4
BRANCH   1   6
ATOM      6  CB  LEU A   1      48.778  19.720   3.082  0.00  0.00    +0.025 C 
BRANCH   6   7
ATOM      7  CG  LEU A   1      49.058  18.220   3.195  0.00  0.00    +0.002 C 
ATOM      8  CD2 LEU A   1      47.810  17.386   3.457  0.00  0.00    +0.000 C 
ATOM      9  CD1 LEU A   1      49.678  17.881   1.895  0.00  0.00    +0.000 C 
ENDBRANCH   6   7
ENDBRANCH   1   6
TORSDOF 4
REMARK  Name = ../refined-set-2016/4tmn/4tmn_pocket.pdb
REMARK  240 active torsions:
REMARK  status: ('A' for Active; 'I' for Inactive)
REMARK    1  A    between atoms: _1  and  _3
REMARK    2  A    between atoms: _3  and  _4
REMARK    3  A    between atoms: _3  and  _6
REMARK    4  A    between atoms: _6  and  _7
REMARK    5  A    between atoms: _12  and  _13
REMARK    6  A    between atoms: _15  and  _17
REMARK    7  A    between atoms: _17  and  _18
REMARK    8  A    between atoms: _17  and  _20
REMARK    9  A    between atoms: _20  and  _21
REMARK   10  A    between atoms: _26  and  _27
REMARK   11  A    between atoms: _29  and  _31
REMARK   12  A    between atoms: _31  and  _32
REMARK   13  A    between atoms: _31  and  _34
REMARK   14  A    between atoms: _34  and  _35
REMARK   15  A    between atoms: _40  and  _42
REMARK   16  A    between atoms: _42  and  _43
REMARK   17  A    between atoms: _42  and  _45
REMARK   18  A    between atoms: _45  and  _46
REMARK   19  A    between atoms: _51  and  _53
REMARK   20  A    between atoms: _53  and  _54
REMARK   21  A    between atoms: _57  and  _59
REMARK   22  A    between atoms: _59  and  _60
REMARK   23  A    between atoms: _59  and  _62
REMARK   24  A    between atoms: _62  and  _63
REMARK   25  A    between atoms: _69  and  _71
REMARK   26  A    between atoms: _71  and  _72
REMARK   27  A    between atoms: _71  and  _74
REMARK   28  A    between atoms: _74  and  _75
REMARK   29  A    between atoms: _85  and  _87
REMARK   30  A    between atoms: _87  and  _88
REMARK   31  A    between atoms: _87  and  _90
REMARK   32  A    between atoms: _90  and  _91
REMARK   33  A    between atoms: _96  and  _98
REMARK   34  A    between atoms: _98  and  _99
REMARK   35  A    between atoms: _103  and  _104
REMARK   36  A    between atoms: _103  and  _106
REMARK   37  A    between atoms: _106  and  _107
REMARK   38  A    between atoms: _109  and  _111
REMARK   39  A    between atoms: _111  and  _112
REMARK   40  A    between atoms: _111  and  _114
REMARK   41  A    between atoms: _114  and  _115
REMARK   42  A    between atoms: _115  and  _116
REMARK   43  A    between atoms: _119  and  _121
REMARK   44  A    between atoms: _121  and  _122
REMARK   45  A    between atoms: _121  and  _124
REMARK   46  A    between atoms: _124  and  _125
REMARK   47  A    between atoms: _125  and  _126
REMARK   48  A    between atoms: _128  and  _130
REMARK   49  A    between atoms: _130  and  _131
REMARK   50  A    between atoms: _130  and  _133
REMARK   51  A    between atoms: _136  and  _138
REMARK   52  A    between atoms: _138  and  _139
REMARK   53  A    between atoms: _138  and  _141
REMARK   54  A    between atoms: _141  and  _142
REMARK   55  A    between atoms: _147  and  _148
REMARK   56  A    between atoms: _150  and  _152
REMARK   57  A    between atoms: _152  and  _153
REMARK   58  A    between atoms: _155  and  _157
REMARK   59  A    between atoms: _157  and  _158
REMARK   60  A    between atoms: _157  and  _160
REMARK   61  A    between atoms: _160  and  _161
REMARK   62  A    between atoms: _164  and  _166
REMARK   63  A    between atoms: _166  and  _167
REMARK   64  A    between atoms: _166  and  _169
REMARK   65  A    between atoms: _169  and  _170
REMARK   66  A    between atoms: _176  and  _178
REMARK   67  A    between atoms: _178  and  _179
REMARK   68  A    between atoms: _178  and  _181
REMARK   69  A    between atoms: _181  and  _182
REMARK   70  A    between atoms: _185  and  _187
REMARK   71  A    between atoms: _187  and  _188
REMARK   72  A    between atoms: _190  and  _192
REMARK   73  A    between atoms: _192  and  _193
REMARK   74  A    between atoms: _192  and  _195
REMARK   75  A    between atoms: _195  and  _196
REMARK   76  A    between atoms: _199  and  _201
REMARK   77  A    between atoms: _201  and  _202
REMARK   78  A    between atoms: _201  and  _204
REMARK   79  A    between atoms: _207  and  _209
REMARK   80  A    between atoms: _209  and  _210
REMARK   81  A    between atoms: _209  and  _212
REMARK   82  A    between atoms: _215  and  _217
REMARK   83  A    between atoms: _217  and  _218
REMARK   84  A    between atoms: _221  and  _223
REMARK   85  A    between atoms: _234  and  _237
REMARK   86  A    between atoms: _237  and  _238
REMARK   87  A    between atoms: _238  and  _239
REMARK   88  A    between atoms: _244  and  _247
REMARK   89  A    between atoms: _247  and  _248
REMARK   90  A    between atoms: _253  and  _256
REMARK   91  A    between atoms: _256  and  _257
REMARK   92  A    between atoms: _262  and  _263
REMARK   93  A    between atoms: _271  and  _273
REMARK   94  A    between atoms: _273  and  _274
REMARK   95  A    between atoms: _277  and  _279
REMARK   96  A    between atoms: _279  and  _280
REMARK   97  A    between atoms: _279  and  _282
REMARK   98  A    between atoms: _282  and  _283
REMARK   99  A    between atoms: _286  and  _288
REMARK  100  A    between atoms: _288  and  _289
REMARK  101  A    between atoms: _288  and  _291
REMARK  102  A    between atoms: _291  and  _292
REMARK  103  A    between atoms: _295  and  _297
REMARK  104  A    between atoms: _297  and  _298
REMARK  105  A    between atoms: _300  and  _302
REMARK  106  A    between atoms: _302  and  _303
REMARK  107  A    between atoms: _302  and  _305
REMARK  108  A    between atoms: _305  and  _306
REMARK  109  A    between atoms: _309  and  _311
REMARK  110  A    between atoms: _311  and  _312
REMARK  111  A    between atoms: _311  and  _314
REMARK  112  A    between atoms: _314  and  _315
REMARK  113  A    between atoms: _318  and  _320
REMARK  114  A    between atoms: _320  and  _321
REMARK  115  A    between atoms: _320  and  _323
REMARK  116  A    between atoms: _323  and  _324
REMARK  117  A    between atoms: _329  and  _330
REMARK  118  A    between atoms: _332  and  _334
REMARK  119  A    between atoms: _334  and  _335
REMARK  120  A    between atoms: _334  and  _337
REMARK  121  A    between atoms: _337  and  _338
REMARK  122  A    between atoms: _338  and  _339
REMARK  123  A    between atoms: _344  and  _346
REMARK  124  A    between atoms: _346  and  _347
REMARK  125  A    between atoms: _349  and  _351
REMARK  126  A    between atoms: _351  and  _352
REMARK  127  A    between atoms: _351  and  _354
REMARK  128  A    between atoms: _354  and  _355
REMARK  129  A    between atoms: _360  and  _362
REMARK  130  A    between atoms: _362  and  _363
REMARK  131  A    between atoms: _362  and  _365
REMARK  132  A    between atoms: _365  and  _366
REMARK  133  A    between atoms: _366  and  _367
REMARK  134  A    between atoms: _367  and  _368
REMARK  135  A    between atoms: _368  and  ZN_631
REMARK  136  A    between atoms: _370  and  _372
REMARK  137  A    between atoms: _372  and  _373
REMARK  138  A    between atoms: _372  and  _375
REMARK  139  A    between atoms: _375  and  _376
REMARK  140  A    between atoms: _378  and  _380
REMARK  141  A    between atoms: _380  and  _381
REMARK  142  A    between atoms: _380  and  _383
REMARK  143  A    between atoms: _383  and  _384
REMARK  144  A    between atoms: _387  and  _389
REMARK  145  A    between atoms: _389  and  _390
REMARK  146  A    between atoms: _392  and  _394
REMARK  147  A    between atoms: _394  and  _395
REMARK  148  A    between atoms: _394  and  _397
REMARK  149  A    between atoms: _397  and  _398
REMARK  150  A    between atoms: _401  and  _403
REMARK  151  A    between atoms: _403  and  _404
REMARK  152  A    between atoms: _406  and  _408
REMARK  153  A    between atoms: _408  and  _409
REMARK  154  A    between atoms: _408  and  _411
REMARK  155  A    between atoms: _411  and  _412
REMARK  156  A    between atoms: _412  and  _413
REMARK  157  A    between atoms: _416  and  _418
REMARK  158  A    between atoms: _418  and  _419
REMARK  159  A    between atoms: _418  and  _421
REMARK  160  A    between atoms: _424  and  _426
REMARK  161  A    between atoms: _426  and  _427
REMARK  162  A    between atoms: _426  and  _429
REMARK  163  A    between atoms: _429  and  _430
REMARK  164  A    between atoms: _435  and  _436
REMARK  165  A    between atoms: _438  and  _440
REMARK  166  A    between atoms: _440  and  _441
REMARK  167  A    between atoms: _440  and  _443
REMARK  168  A    between atoms: _443  and  _444
REMARK  169  A    between atoms: _447  and  _449
REMARK  170  A    between atoms: _449  and  _450
REMARK  171  A    between atoms: _449  and  _452
REMARK  172  A    between atoms: _452  and  _453
REMARK  173  A    between atoms: _453  and  _454
REMARK  174  A    between atoms: _454  and  _455
REMARK  175  A    between atoms: _464  and  _466
REMARK  176  A    between atoms: _466  and  _467
REMARK  177  A    between atoms: _466  and  _469
REMARK  178  A    between atoms: _469  and  _470
REMARK  179  A    between atoms: _473  and  _475
REMARK  180  A    between atoms: _475  and  _476
REMARK  181  A    between atoms: _475  and  _478
REMARK  182  A    between atoms: _478  and  _479
REMARK  183  A    between atoms: _484  and  _486
REMARK  184  A    between atoms: _486  and  _487
REMARK  185  A    between atoms: _486  and  _489
REMARK  186  A    between atoms: _492  and  _494
REMARK  187  A    between atoms: _494  and  _495
REMARK  188  A    between atoms: _494  and  _497
REMARK  189  A    between atoms: _497  and  _498
REMARK  190  A    between atoms: _503  and  _505
REMARK  191  A    between atoms: _505  and  _506
REMARK  192  A    between atoms: _505  and  _508
REMARK  193  A    between atoms: _508  and  _509
REMARK  194  A    between atoms: _512  and  _514
REMARK  195  A    between atoms: _514  and  _515
REMARK  196  A    between atoms: _514  and  _517
REMARK  197  A    between atoms: _517  and  _518
REMARK  198  A    between atoms: _520  and  _522
REMARK  199  A    between atoms: _522  and  _523
REMARK  200  A    between atoms: _522  and  _525
REMARK  201  A    between atoms: _525  and  _526
REMARK  202  A    between atoms: _526  and  _527
REMARK  203  A    between atoms: _527  and  _528
REMARK  204  A    between atoms: _537  and  _539
REMARK  205  A    between atoms: _539  and  _540
REMARK  206  A    between atoms: _539  and  _542
REMARK  207  A    between atoms: _542  and  _543
REMARK  208  A    between atoms: _546  and  _548
REMARK  209  A    between atoms: _548  and  _549
REMARK  210  A    between atoms: _548  and  _551
REMARK  211  A    between atoms: _551  and  _552
REMARK  212  A    between atoms: _555  and  _557
REMARK  213  A    between atoms: _557  and  _558
REMARK  214  A    between atoms: _557  and  _560
REMARK  215  A    between atoms: _560  and  _561
REMARK  216  A    between atoms: _564  and  _566
REMARK  217  A    between atoms: _566  and  _567
REMARK  218  A    between atoms: _566  and  _569
REMARK  219  A    between atoms: _569  and  _570
REMARK  220  A    between atoms: _575  and  _576
REMARK  221  A    between atoms: _578  and  _580
REMARK  222  A    between atoms: _580  and  _581
REMARK  223  A    between atoms: _580  and  _583
REMARK  224  A    between atoms: _583  and  _584
REMARK  225  A    between atoms: _586  and  _588
REMARK  226  A    between atoms: _588  and  _589
REMARK  227  A    between atoms: _588  and  _591
REMARK  228  A    between atoms: _591  and  _592
REMARK  229  A    between atoms: _597  and  _598
REMARK  230  A    between atoms: _600  and  _602
REMARK  231  A    between atoms: _602  and  _603
REMARK  232  A    between atoms: _602  and  _605
REMARK  233  A    between atoms: _605  and  _606
REMARK  234  A    between atoms: _612  and  _614
REMARK  235  A    between atoms: _614  and  _615
REMARK  236  A    between atoms: _614  and  _617
REMARK  237  A    between atoms: _620  and  _622
REMARK  238  A    between atoms: _622  and  _623
REMARK  239  A    between atoms: _622  and  _625
REMARK  240  A    between atoms: _625  and  _626
REMARK                            x       y       z     vdW  Elec       q    Type
REMARK                         _______ _______ _______ _____ _____    ______ ____
ROOT
ATOM      1  CA  GLY A   1      53.824  23.650   6.304  0.00  0.00    +0.156 C 
ENDROOT
BRANCH   1   2
ATOM      2  N   GLY A   1      52.426  23.601   6.701  0.00  0.00    -0.238 NA
ATOM      3  H   GLY A   1      51.708  23.371   5.985  0.00  0.00    +0.142 HD
ENDBRANCH   1   2
BRANCH   1   4
ATOM      4  C   GLY A   1      54.060  24.829   5.353  0.00  0.00    +0.226 C 
ATOM      5  O   GLY A   1      53.508  24.872   4.220  0.00  0.00    -0.287 OA
ENDBRANCH   1   4
TORSDOF 2
REMARK  Name = ../refined-set-2016/4tmn/4tmn_pocket.pdb
REMARK  240 active torsions:
REMARK  status: ('A' for Active; 'I' for Inactive)
REMARK    1  A    between atoms: _1  and  _3
REMARK    2  A    between atoms: _3  and  _4
REMARK    3  A    between atoms: _3  and  _6
REMARK    4  A    between atoms: _6  and  _7
REMARK    5  A    between atoms: _12  and  _13
REMARK    6  A    between atoms: _15  and  _17
REMARK    7  A    between atoms: _17  and  _18
REMARK    8  A    between atoms: _17  and  _20
REMARK    9  A    between atoms: _20  and  _21
REMARK   10  A    between atoms: _26  and  _27
REMARK   11  A    between atoms: _29  and  _31
REMARK   12  A    between atoms: _31  and  _32
REMARK   13  A    between atoms: _31  and  _34
REMARK   14  A    between atoms: _34  and  _35
REMARK   15  A    between atoms: _40  and  _42
REMARK   16  A    between atoms: _42  and  _43
REMARK   17  A    between atoms: _42  and  _45
REMARK   18  A    between atoms: _45  and  _46
REMARK   19  A    between atoms: _51  and  _53
REMARK   20  A    between atoms: _53  and  _54
REMARK   21  A    between atoms: _57  and  _59
REMARK   22  A    between atoms: _59  and  _60
REMARK   23  A    between atoms: _59  and  _62
REMARK   24  A    between atoms: _62  and  _63
REMARK   25  A    between atoms: _69  and  _71
REMARK   26  A    between atoms: _71  and  _72
REMARK   27  A    between atoms: _71  and  _74
REMARK   28  A    between atoms: _74  and  _75
REMARK   29  A    between atoms: _85  and  _87
REMARK   30  A    between atoms: _87  and  _88
REMARK   31  A    between atoms: _87  and  _90
REMARK   32  A    between atoms: _90  and  _91
REMARK   33  A    between atoms: _96  and  _98
REMARK   34  A    between atoms: _98  and  _99
REMARK   35  A    between atoms: _103  and  _104
REMARK   36  A    between atoms: _103  and  _106
REMARK   37  A    between atoms: _106  and  _107
REMARK   38  A    between atoms: _109  and  _111
REMARK   39  A    between atoms: _111  and  _112
REMARK   40  A    between atoms: _111  and  _114
REMARK   41  A    between atoms: _114  and  _115
REMARK   42  A    between atoms: _115  and  _116
REMARK   43  A    between atoms: _119  and  _121
REMARK   44  A    between atoms: _121  and  _122
REMARK   45  A    between atoms: _121  and  _124
REMARK   46  A    between atoms: _124  and  _125
REMARK   47  A    between atoms: _125  and  _126
REMARK   48  A    between atoms: _128  and  _130
REMARK   49  A    between atoms: _130  and  _131
REMARK   50  A    between atoms: _130  and  _133
REMARK   51  A    between atoms: _136  and  _138
REMARK   52  A    between atoms: _138  and  _139
REMARK   53  A    between atoms: _138  and  _141
REMARK   54  A    between atoms: _141  and  _142
REMARK   55  A    between atoms: _147  and  _148
REMARK   56  A    between atoms: _150  and  _152
REMARK   57  A    between atoms: _152  and  _153
REMARK   58  A    between atoms: _155  and  _157
REMARK   59  A    between atoms: _157  and  _158
REMARK   60  A    between atoms: _157  and  _160
REMARK   61  A    between atoms: _160  and  _161
REMARK   62  A    between atoms: _164  and  _166
REMARK   63  A    between atoms: _166  and  _167
REMARK   64  A    between atoms: _166  and  _169
REMARK   65  A    between atoms: _169  and  _170
REMARK   66  A    between atoms: _176  and  _178
REMARK   67  A    between atoms: _178  and  _179
REMARK   68  A    between atoms: _178  and  _181
REMARK   69  A    between atoms: _181  and  _182
REMARK   70  A    between atoms: _185  and  _187
REMARK   71  A    between atoms: _187  and  _188
REMARK   72  A    between atoms: _190  and  _192
REMARK   73  A    between atoms: _192  and  _193
REMARK   74  A    between atoms: _192  and  _195
REMARK   75  A    between atoms: _195  and  _196
REMARK   76  A    between atoms: _199  and  _201
REMARK   77  A    between atoms: _201  and  _202
REMARK   78  A    between atoms: _201  and  _204
REMARK   79  A    between atoms: _207  and  _209
REMARK   80  A    between atoms: _209  and  _210
REMARK   81  A    between atoms: _209  and  _212
REMARK   82  A    between atoms: _215  and  _217
REMARK   83  A    between atoms: _217  and  _218
REMARK   84  A    between atoms: _221  and  _223
REMARK   85  A    between atoms: _234  and  _237
REMARK   86  A    between atoms: _237  and  _238
REMARK   87  A    between atoms: _238  and  _239
REMARK   88  A    between atoms: _244  and  _247
REMARK   89  A    between atoms: _247  and  _248
REMARK   90  A    between atoms: _253  and  _256
REMARK   91  A    between atoms: _256  and  _257
REMARK   92  A    between atoms: _262  and  _263
REMARK   93  A    between atoms: _271  and  _273
REMARK   94  A    between atoms: _273  and  _274
REMARK   95  A    between atoms: _277  and  _279
REMARK   96  A    between atoms: _279  and  _280
REMARK   97  A    between atoms: _279  and  _282
REMARK   98  A    between atoms: _282  and  _283
REMARK   99  A    between atoms: _286  and  _288
REMARK  100  A    between atoms: _288  and  _289
REMARK  101  A    between atoms: _288  and  _291
REMARK  102  A    between atoms: _291  and  _292
REMARK  103  A    between atoms: _295  and  _297
REMARK  104  A    between atoms: _297  and  _298
REMARK  105  A    between atoms: _300  and  _302
REMARK  106  A    between atoms: _302  and  _303
REMARK  107  A    between atoms: _302  and  _305
REMARK  108  A    between atoms: _305  and  _306
REMARK  109  A    between atoms: _309  and  _311
REMARK  110  A    between atoms: _311  and  _312
REMARK  111  A    between atoms: _311  and  _314
REMARK  112  A    between atoms: _314  and  _315
REMARK  113  A    between atoms: _318  and  _320
REMARK  114  A    between atoms: _320  and  _321
REMARK  115  A    between atoms: _320  and  _323
REMARK  116  A    between atoms: _323  and  _324
REMARK  117  A    between atoms: _329  and  _330
REMARK  118  A    between atoms: _332  and  _334
REMARK  119  A    between atoms: _334  and  _335
REMARK  120  A    between atoms: _334  and  _337
REMARK  121  A    between atoms: _337  and  _338
REMARK  122  A    between atoms: _338  and  _339
REMARK  123  A    between atoms: _344  and  _346
REMARK  124  A    between atoms: _346  and  _347
REMARK  125  A    between atoms: _349  and  _351
REMARK  126  A    between atoms: _351  and  _352
REMARK  127  A    between atoms: _351  and  _354
REMARK  128  A    between atoms: _354  and  _355
REMARK  129  A    between atoms: _360  and  _362
REMARK  130  A    between atoms: _362  and  _363
REMARK  131  A    between atoms: _362  and  _365
REMARK  132  A    between atoms: _365  and  _366
REMARK  133  A    between atoms: _366  and  _367
REMARK  134  A    between atoms: _367  and  _368
REMARK  135  A    between atoms: _368  and  ZN_631
REMARK  136  A    between atoms: _370  and  _372
REMARK  137  A    between atoms: _372  and  _373
REMARK  138  A    between atoms: _372  and  _375
REMARK  139  A    between atoms: _375  and  _376
REMARK  140  A    between atoms: _378  and  _380
REMARK  141  A    between atoms: _380  and  _381
REMARK  142  A    between atoms: _380  and  _383
REMARK  143  A    between atoms: _383  and  _384
REMARK  144  A    between atoms: _387  and  _389
REMARK  145  A    between atoms: _389  and  _390
REMARK  146  A    between atoms: _392  and  _394
REMARK  147  A    between atoms: _394  and  _395
REMARK  148  A    between atoms: _394  and  _397
REMARK  149  A    between atoms: _397  and  _398
REMARK  150  A    between atoms: _401  and  _403
REMARK  151  A    between atoms: _403  and  _404
REMARK  152  A    between atoms: _406  and  _408
REMARK  153  A    between atoms: _408  and  _409
REMARK  154  A    between atoms: _408  and  _411
REMARK  155  A    between atoms: _411  and  _412
REMARK  156  A    between atoms: _412  and  _413
REMARK  157  A    between atoms: _416  and  _418
REMARK  158  A    between atoms: _418  and  _419
REMARK  159  A    between atoms: _418  and  _421
REMARK  160  A    between atoms: _424  and  _426
REMARK  161  A    between atoms: _426  and  _427
REMARK  162  A    between atoms: _426  and  _429
REMARK  163  A    between atoms: _429  and  _430
REMARK  164  A    between atoms: _435  and  _436
REMARK  165  A    between atoms: _438  and  _440
REMARK  166  A    between atoms: _440  and  _441
REMARK  167  A    between atoms: _440  and  _443
REMARK  168  A    between atoms: _443  and  _444
REMARK  169  A    between atoms: _447  and  _449
REMARK  170  A    between atoms: _449  and  _450
REMARK  171  A    between atoms: _449  and  _452
REMARK  172  A    between atoms: _452  and  _453
REMARK  173  A    between atoms: _453  and  _454
REMARK  174  A    between atoms: _454  and  _455
REMARK  175  A    between atoms: _464  and  _466
REMARK  176  A    between atoms: _466  and  _467
REMARK  177  A    between atoms: _466  and  _469
REMARK  178  A    between atoms: _469  and  _470
REMARK  179  A    between atoms: _473  and  _475
REMARK  180  A    between atoms: _475  and  _476
REMARK  181  A    between atoms: _475  and  _478
REMARK  182  A    between atoms: _478  and  _479
REMARK  183  A    between atoms: _484  and  _486
REMARK  184  A    between atoms: _486  and  _487
REMARK  185  A    between atoms: _486  and  _489
REMARK  186  A    between atoms: _492  and  _494
REMARK  187  A    between atoms: _494  and  _495
REMARK  188  A    between atoms: _494  and  _497
REMARK  189  A    between atoms: _497  and  _498
REMARK  190  A    between atoms: _503  and  _505
REMARK  191  A    between atoms: _505  and  _506
REMARK  192  A    between atoms: _505  and  _508
REMARK  193  A    between atoms: _508  and  _509
REMARK  194  A    between atoms: _512  and  _514
REMARK  195  A    between atoms: _514  and  _515
REMARK  196  A    between atoms: _514  and  _517
REMARK  197  A    between atoms: _517  and  _518
REMARK  198  A    between atoms: _520  and  _522
REMARK  199  A    between atoms: _522  and  _523
REMARK  200  A    between atoms: _522  and  _525
REMARK  201  A    between atoms: _525  and  _526
REMARK  202  A    between atoms: _526  and  _527
REMARK  203  A    between atoms: _527  and  _528
REMARK  204  A    between atoms: _537  and  _539
REMARK  205  A    between atoms: _539  and  _540
REMARK  206  A    between atoms: _539  and  _542
REMARK  207  A    between atoms: _542  and  _543
REMARK  208  A    between atoms: _546  and  _548
REMARK  209  A    between atoms: _548  and  _549
REMARK  210  A    between atoms: _548  and  _551
REMARK  211  A    between atoms: _551  and  _552
REMARK  212  A    between atoms: _555  and  _557
REMARK  213  A    between atoms: _557  and  _558
REMARK  214  A    between atoms: _557  and  _560
REMARK  215  A    between atoms: _560  and  _561
REMARK  216  A    between atoms: _564  and  _566
REMARK  217  A    between atoms: _566  and  _567
REMARK  218  A    between atoms: _566  and  _569
REMARK  219  A    between atoms: _569  and  _570
REMARK  220  A    between atoms: _575  and  _576
REMARK  221  A    between atoms: _578  and  _580
REMARK  222  A    between atoms: _580  and  _581
REMARK  223  A    between atoms: _580  and  _583
REMARK  224  A    between atoms: _583  and  _584
REMARK  225  A    between atoms: _586  and  _588
REMARK  226  A    between atoms: _588  and  _589
REMARK  227  A    between atoms: _588  and  _591
REMARK  228  A    between atoms: _591  and  _592
REMARK  229  A    between atoms: _597  and  _598
REMARK  230  A    between atoms: _600  and  _602
REMARK  231  A    between atoms: _602  and  _603
REMARK  232  A    between atoms: _602  and  _605
REMARK  233  A    between atoms: _605  and  _606
REMARK  234  A    between atoms: _612  and  _614
REMARK  235  A    between atoms: _614  and  _615
REMARK  236  A    between atoms: _614  and  _617
REMARK  237  A    between atoms: _620  and  _622
REMARK  238  A    between atoms: _622  and  _623
REMARK  239  A    between atoms: _622  and  _625
REMARK  240  A    between atoms: _625  and  _626
REMARK                            x       y       z     vdW  Elec       q    Type
REMARK                         _______ _______ _______ _____ _____    ______ ____
ROOT
ATOM      1  C   UNK A   5      55.652  25.120  -3.281  0.00  0.00    +0.000 C 
ATOM      2  C   UNK A   5      55.784  23.665  -2.706  0.00  0.00    +0.000 C 
ATOM      3  C   UNK A   5      55.841  22.577  -3.738  0.00  0.00    +0.000 A 
ATOM      4  N   UNK A   5      56.981  21.769  -3.955  0.00  0.00    +0.000 NA
ATOM      5  C   UNK A   5      56.715  20.953  -4.973  0.00  0.00    +0.000 A 
ATOM      6  N   UNK A   5      55.454  21.149  -5.367  0.00  0.00    +0.000 N 
ATOM      7 ZN   UNK A   5      54.439  20.386  -7.023  0.00  0.00    +0.000 Zn
ATOM      8  N   UNK A   5      53.934  22.140  -8.082  0.00  0.00    +0.000 N 
ATOM      9  C   UNK A   5      53.036  23.162  -7.754  0.00  0.00    +0.000 A 
ATOM     10  C   UNK A   5      53.148  24.027  -8.795  0.00  0.00    +0.000 A 
ATOM     11  C   UNK A   5      52.479  25.348  -9.045  0.00  0.00    +0.000 C 
ATOM     12  C   UNK A   5      53.492  26.468  -9.347  0.00  0.00    +0.000 C 
ATOM     13  N   UNK A   5      53.968  27.074  -8.071  0.00  0.00    +0.000 N 
ATOM     14  H   UNK A   5      53.619  26.714  -7.160  0.00  0.00    +0.000 HD
ATOM     15  C   THR A   8      54.855  28.092  -8.103  0.00  0.00    +0.000 C 
ATOM     16  CA  THR A   8      55.344  28.823  -6.912  0.00  0.00    +0.000 C 
ATOM     17  N   THR A   8      54.273  28.796  -5.967  0.00  0.00    +0.000 N 
ATOM     18  H   THR A   8      54.403  28.264  -5.083  0.00  0.00    +0.000 HD
ATOM     19  C   LEU A   7      53.108  29.426  -6.170  0.00  0.00    +0.000 C 
ATOM     20  CA  LEU A   7      52.064  29.238  -5.036  0.00  0.00    +0.000 C 
ATOM     21  N   LEU A   7      52.124  27.849  -4.519  0.00  0.00    +0.000 N 
ATOM     22  H   LEU A   7      52.408  27.711  -3.528  0.00  0.00    +0.000 HD
ATOM     23  C   GLU A   6      51.841  26.780  -5.233  0.00  0.00    +0.000 C 
ATOM     24  CA  GLU A   6      51.963  25.452  -4.419  0.00  0.00    +0.000 C 
ATOM     25  N   GLU A   6      53.225  25.305  -3.668  0.00  0.00    +0.000 N 
ATOM     26  H   GLU A   6      53.181  25.218  -2.633  0.00  0.00    +0.000 HD
ATOM     27  O   GLU A   6      51.581  26.807  -6.459  0.00  0.00    +0.000 OA
ATOM     28  O   LEU A   7      52.922  30.034  -7.220  0.00  0.00    +0.000 OA
ATOM     29  O   THR A   8      55.270  28.473  -9.113  0.00  0.00    +0.000 OA
ATOM     30  N   UNK A   5      54.122  23.511  -9.714  0.00  0.00    +0.000 NA
ATOM     31  C   UNK A   5      54.535  22.360  -9.268  0.00  0.00    +0.000 A 
ATOM     32  C   UNK A   5      54.877  22.171  -4.594  0.00  0.00    +0.000 A 
ATOM     33  C   UNK A   5      54.466  25.278  -4.283  0.00  0.00    +0.000 C 
ATOM     34  O   UNK A   5      54.604  25.367  -5.548  0.00  0.00    +0.000 OA
ENDROOT
BRANCH  12  35
ATOM     35  C   UNK A   5      52.732  27.529 -10.189  0.00  0.00    +0.000 C 
ATOM     36  N   ALA A  10      52.103  28.479  -9.480  0.00  0.00    +0.000 N 
ATOM     37  H   ALA A  10      52.144  28.459  -8.441  0.00  0.00    +0.000 HD
ATOM     38  O   UNK A   5      52.671  27.489 -11.463  0.00  0.00    +0.000 OA
BRANCH  36  39
ATOM     39  CA  ALA A  10      51.329  29.586 -10.184  0.00  0.00    +0.000 C 
ATOM     40  CB  ALA A  10      50.503  30.316  -9.141  0.00  0.00    +0.000 C 
BRANCH  39  41
ATOM     41  C   ALA A  10      52.293  30.517 -10.948  0.00  0.00    +0.000 C 
ATOM     42  O   ALA A  10      52.122  30.877 -12.156  0.00  0.00    +0.000 OA
ENDBRANCH  39  41
ENDBRANCH  36  39
ENDBRANCH  12  35
BRANCH   1  44
ATOM     43  C   ALA A   4      55.413  27.395  -2.331  0.00  0.00    +0.000 C 
ATOM     44  N   UNK A   5      55.448  26.058  -2.142  0.00  0.00    +0.000 N 
ATOM     45  H   UNK A   5      55.330  25.676  -1.182  0.00  0.00    +0.000 HD
ATOM     46  O   ALA A   4      55.571  27.897  -3.460  0.00  0.00    +0.000 OA
BRANCH  43  47
ATOM     47  CA  ALA A   4      55.158  28.224  -1.076  0.00  0.00    +0.000 C 
ATOM     48  CB  ALA A   4      56.403  28.734  -0.363  0.00  0.00    +0.000 C 
BRANCH  47  50
ATOM     49  C   VAL A   3      52.984  27.307  -0.369  0.00  0.00    +0.000 C 
ATOM     50  N   ALA A   4      54.305  27.541  -0.116  0.00  0.00    +0.000 N 
ATOM     51  H   ALA A   4      54.712  27.223   0.787  0.00  0.00    +0.000 HD
ATOM     52  O   VAL A   3      52.493  27.546  -1.454  0.00  0.00    +0.000 OA
BRANCH  49  53
ATOM     53  CA  VAL A   3      52.174  26.631   0.745  0.00  0.00    +0.000 C 
BRANCH  53  55
ATOM     54  C   UNK A   2      53.346  24.414   0.402  0.00  0.00    +0.000 C 
ATOM     55  N   VAL A   3      52.920  25.437   1.226  0.00  0.00    +0.000 N 
ATOM     56  H   VAL A   3      53.133  25.369   2.242  0.00  0.00    +0.000 HD
ATOM     57  O   UNK A   2      53.108  24.355  -0.846  0.00  0.00    +0.000 OA
BRANCH  54  58
ATOM     58  C   UNK A   2      54.154  23.267   1.163  0.00  0.00    +0.000 C 
BRANCH  58  60
ATOM     59  C   ASN A   1      56.362  24.459   1.349  0.00  0.00    +0.000 C 
ATOM     60  N   UNK A   2      55.301  23.837   1.938  0.00  0.00    +0.000 N 
ATOM     61  H   UNK A   2      55.288  23.755   2.975  0.00  0.00    +0.000 HD
ATOM     62  O   ASN A   1      56.458  24.587   0.122  0.00  0.00    +0.000 OA
BRANCH  59  63
ATOM     63  CA  ASN A   1      57.397  24.996   2.304  0.00  0.00    +0.000 C 
BRANCH  63  64
ATOM     64  N   ASN A   1      56.751  25.446   3.569  0.00  0.00    +0.000 NA
ATOM     65  H   ASN A   1      57.001  24.968   4.458  0.00  0.00    +0.000 HD
ENDBRANCH  63  64
BRANCH  63  66
ATOM     66  CB  ASN A   1      58.564  23.988   2.464  0.00  0.00    +0.000 C 
BRANCH  66  67
ATOM     67  CG  ASN A   1      58.351  22.813   3.421  0.00  0.00    +0.000 C 
ATOM     68  OD2 ASN A   1      57.161  22.578   3.899  0.00  0.00    +0.000 OA
ATOM     69  OD1 ASN A   1      59.245  22.111   3.765  0.00  0.00    +0.000 OA
ENDBRANCH  66  67
ENDBRANCH  63  66
ENDBRANCH  59  63
ENDBRANCH  58  60
BRANCH  58  70
ATOM     70  C   UNK A   2      53.224  22.372   2.060  0.00  0.00    +0.000 C 
ATOM     71  C   UNK A   2      54.108  21.159   2.462  0.00  0.00    +0.000 C 
ATOM     72  C   UNK A   2      51.978  21.936   1.249  0.00  0.00    +0.000 C 
ENDBRANCH  58  70
ENDBRANCH  54  58
ENDBRANCH  53  55
BRANCH  53  73
ATOM     73  CB  VAL A   3      51.708  27.542   1.914  0.00  0.00    +0.000 C 
ATOM     74  CG2 VAL A   3      50.682  26.782   2.768  0.00  0.00    +0.000 C 
ATOM     75  CG1 VAL A   3      51.159  28.829   1.299  0.00  0.00    +0.000 C 
ENDBRANCH  53  73
ENDBRANCH  49  53
ENDBRANCH  47  50
ENDBRANCH  43  47
ENDBRANCH   1  44
BRANCH  16  76
ATOM     76  CB  THR A   8      56.726  28.287  -6.393  0.00  0.00    +0.000 C 
ATOM     77  CG2 THR A   8      57.825  28.346  -7.469  0.00  0.00    +0.000 C 
BRANCH  76  78
ATOM     78  OG1 THR A   8      57.082  29.069  -5.293  0.00  0.00    +0.000 OA
ATOM     79  HG1 THR A   8      56.388  28.985  -4.592  0.00  0.00    +0.000 HD
ENDBRANCH  76  78
ENDBRANCH  16  76
BRANCH   7  80
ATOM     80  O   UNK A   2      55.432  19.439  -8.534  0.00  0.00    +0.000 OA
BRANCH  80  81
ATOM     81  C   UNK A   2      56.413  18.830  -8.243  0.00  0.00    +0.000 C 
ATOM     82  O   UNK A   2      56.812  18.688  -6.997  0.00  0.00    +0.000 OA
BRANCH  81  83
ATOM     83  C   UNK A   2      57.234  18.186  -9.320  0.00  0.00    +0.000 C 
BRANCH  83  84
ATOM     84  C   UNK A   2      58.623  18.821  -9.330  0.00  0.00    +0.000 C 
BRANCH  84  85
ATOM     85  C   UNK A   2      58.634  20.395  -9.287  0.00  0.00    +0.000 C 
BRANCH  85  86
ATOM     86  N   UNK A   2      58.642  20.840 -10.702  0.00  0.00    +0.000 N 
ATOM     87  C   ASN A   1      58.574  22.154 -11.098  0.00  0.00    +0.000 C 
ATOM     88  O   ASN A   1      58.518  23.062 -10.300  0.00  0.00    +0.000 OA
ATOM     89  H   UNK A   2      58.703  20.111 -11.441  0.00  0.00    +0.000 HD
BRANCH  87  90
ATOM     90  CA  ASN A   1      58.632  22.436 -12.593  0.00  0.00    +0.000 C 
BRANCH  90  91
ATOM     91  N   ASN A   1      59.802  21.762 -13.178  0.00  0.00    +0.000 NA
ATOM     92  H   ASN A   1      59.666  21.150 -14.008  0.00  0.00    +0.000 HD
ENDBRANCH  90  91
BRANCH  90  93
ATOM     93  CB  ASN A   1      57.320  22.021 -13.360  0.00  0.00    +0.000 C 
BRANCH  93  94
ATOM     94  CG  ASN A   1      56.121  22.917 -13.003  0.00  0.00    +0.000 C 
ATOM     95  OD1 ASN A   1      56.017  23.323 -11.814  0.00  0.00    +0.000 OA
ATOM     96  ND2 ASN A   1      55.302  23.252 -14.017  0.00  0.00    +0.000 N 
ATOM     97 HD21 ASN A   1      54.504  23.897 -13.849  0.00  0.00    +0.000 HD
ATOM     98 HD22 ASN A   1      55.467  22.866 -14.968  0.00  0.00    +0.000 HD
ENDBRANCH  93  94
ENDBRANCH  90  93
ENDBRANCH  87  90
ENDBRANCH  85  86
BRANCH  85  99
ATOM     99  C   UNK A   2      59.837  20.961  -8.476  0.00  0.00    +0.000 C 
ATOM    100  O   UNK A   2      59.655  21.458  -7.417  0.00  0.00    +0.000 OA
ENDBRANCH  85  99
ENDBRANCH  84  85
ENDBRANCH  83  84
ENDBRANCH  81  83
ENDBRANCH  80  81
ENDBRANCH   7  80
BRANCH  24 101
ATOM    101  CB  GLU A   6      50.721  25.156  -3.514  0.00  0.00    +0.000 C 
BRANCH 101 102
ATOM    102  CG  GLU A   6      50.626  23.703  -2.863  0.00  0.00    +0.000 C 
BRANCH 102 103
ATOM    103  CD  GLU A   6      50.984  22.534  -3.805  0.00  0.00    +0.000 C 
ATOM    104  OE2 GLU A   6      51.413  21.544  -3.124  0.00  0.00    +0.000 OA
ATOM    105  OE1 GLU A   6      50.982  22.528  -5.063  0.00  0.00    +0.000 OA
ENDBRANCH 102 103
ENDBRANCH 101 102
ENDBRANCH  24 101
BRANCH  20 106
ATOM    106  CB  LEU A   7      52.166  30.193  -3.787  0.00  0.00    +0.000 C 
BRANCH 106 107
ATOM    107  CG  LEU A   7      51.267  31.485  -3.796  0.00  0.00    +0.000 C 
ATOM    108  CD2 LEU A   7      52.026  32.712  -4.188  0.00  0.00    +0.000 C 
ATOM    109  CD1 LEU A   7      50.314  31.433  -4.982  0.00  0.00    +0.000 C 
ENDBRANCH 106 107
ENDBRANCH  20 106
TORSDOF 34
REMARK  Name = ../refined-set-2016/4tmn/4tmn_pocket.pdb
REMARK  240 active torsions:
REMARK  status: ('A' for Active; 'I' for Inactive)
REMARK    1  A    between atoms: _1  and  _3
REMARK    2  A    between atoms: _3  and  _4
REMARK    3  A    between atoms: _3  and  _6
REMARK    4  A    between atoms: _6  and  _7
REMARK    5  A    between atoms: _12  and  _13
REMARK    6  A    between atoms: _15  and  _17
REMARK    7  A    between atoms: _17  and  _18
REMARK    8  A    between atoms: _17  and  _20
REMARK    9  A    between atoms: _20  and  _21
REMARK   10  A    between atoms: _26  and  _27
REMARK   11  A    between atoms: _29  and  _31
REMARK   12  A    between atoms: _31  and  _32
REMARK   13  A    between atoms: _31  and  _34
REMARK   14  A    between atoms: _34  and  _35
REMARK   15  A    between atoms: _40  and  _42
REMARK   16  A    between atoms: _42  and  _43
REMARK   17  A    between atoms: _42  and  _45
REMARK   18  A    between atoms: _45  and  _46
REMARK   19  A    between atoms: _51  and  _53
REMARK   20  A    between atoms: _53  and  _54
REMARK   21  A    between atoms: _57  and  _59
REMARK   22  A    between atoms: _59  and  _60
REMARK   23  A    between atoms: _59  and  _62
REMARK   24  A    between atoms: _62  and  _63
REMARK   25  A    between atoms: _69  and  _71
REMARK   26  A    between atoms: _71  and  _72
REMARK   27  A    between atoms: _71  and  _74
REMARK   28  A    between atoms: _74  and  _75
REMARK   29  A    between atoms: _85  and  _87
REMARK   30  A    between atoms: _87  and  _88
REMARK   31  A    between atoms: _87  and  _90
REMARK   32  A    between atoms: _90  and  _91
REMARK   33  A    between atoms: _96  and  _98
REMARK   34  A    between atoms: _98  and  _99
REMARK   35  A    between atoms: _103  and  _104
REMARK   36  A    between atoms: _103  and  _106
REMARK   37  A    between atoms: _106  and  _107
REMARK   38  A    between atoms: _109  and  _111
REMARK   39  A    between atoms: _111  and  _112
REMARK   40  A    between atoms: _111  and  _114
REMARK   41  A    between atoms: _114  and  _115
REMARK   42  A    between atoms: _115  and  _116
REMARK   43  A    between atoms: _119  and  _121
REMARK   44  A    between atoms: _121  and  _122
REMARK   45  A    between atoms: _121  and  _124
REMARK   46  A    between atoms: _124  and  _125
REMARK   47  A    between atoms: _125  and  _126
REMARK   48  A    between atoms: _128  and  _130
REMARK   49  A    between atoms: _130  and  _131
REMARK   50  A    between atoms: _130  and  _133
REMARK   51  A    between atoms: _136  and  _138
REMARK   52  A    between atoms: _138  and  _139
REMARK   53  A    between atoms: _138  and  _141
REMARK   54  A    between atoms: _141  and  _142
REMARK   55  A    between atoms: _147  and  _148
REMARK   56  A    between atoms: _150  and  _152
REMARK   57  A    between atoms: _152  and  _153
REMARK   58  A    between atoms: _155  and  _157
REMARK   59  A    between atoms: _157  and  _158
REMARK   60  A    between atoms: _157  and  _160
REMARK   61  A    between atoms: _160  and  _161
REMARK   62  A    between atoms: _164  and  _166
REMARK   63  A    between atoms: _166  and  _167
REMARK   64  A    between atoms: _166  and  _169
REMARK   65  A    between atoms: _169  and  _170
REMARK   66  A    between atoms: _176  and  _178
REMARK   67  A    between atoms: _178  and  _179
REMARK   68  A    between atoms: _178  and  _181
REMARK   69  A    between atoms: _181  and  _182
REMARK   70  A    between atoms: _185  and  _187
REMARK   71  A    between atoms: _187  and  _188
REMARK   72  A    between atoms: _190  and  _192
REMARK   73  A    between atoms: _192  and  _193
REMARK   74  A    between atoms: _192  and  _195
REMARK   75  A    between atoms: _195  and  _196
REMARK   76  A    between atoms: _199  and  _201
REMARK   77  A    between atoms: _201  and  _202
REMARK   78  A    between atoms: _201  and  _204
REMARK   79  A    between atoms: _207  and  _209
REMARK   80  A    between atoms: _209  and  _210
REMARK   81  A    between atoms: _209  and  _212
REMARK   82  A    between atoms: _215  and  _217
REMARK   83  A    between atoms: _217  and  _218
REMARK   84  A    between atoms: _221  and  _223
REMARK   85  A    between atoms: _234  and  _237
REMARK   86  A    between atoms: _237  and  _238
REMARK   87  A    between atoms: _238  and  _239
REMARK   88  A    between atoms: _244  and  _247
REMARK   89  A    between atoms: _247  and  _248
REMARK   90  A    between atoms: _253  and  _256
REMARK   91  A    between atoms: _256  and  _257
REMARK   92  A    between atoms: _262  and  _263
REMARK   93  A    between atoms: _271  and  _273
REMARK   94  A    between atoms: _273  and  _274
REMARK   95  A    between atoms: _277  and  _279
REMARK   96  A    between atoms: _279  and  _280
REMARK   97  A    between atoms: _279  and  _282
REMARK   98  A    between atoms: _282  and  _283
REMARK   99  A    between atoms: _286  and  _288
REMARK  100  A    between atoms: _288  and  _289
REMARK  101  A    between atoms: _288  and  _291
REMARK  102  A    between atoms: _291  and  _292
REMARK  103  A    between atoms: _295  and  _297
REMARK  104  A    between atoms: _297  and  _298
REMARK  105  A    between atoms: _300  and  _302
REMARK  106  A    between atoms: _302  and  _303
REMARK  107  A    between atoms: _302  and  _305
REMARK  108  A    between atoms: _305  and  _306
REMARK  109  A    between atoms: _309  and  _311
REMARK  110  A    between atoms: _311  and  _312
REMARK  111  A    between atoms: _311  and  _314
REMARK  112  A    between atoms: _314  and  _315
REMARK  113  A    between atoms: _318  and  _320
REMARK  114  A    between atoms: _320  and  _321
REMARK  115  A    between atoms: _320  and  _323
REMARK  116  A    between atoms: _323  and  _324
REMARK  117  A    between atoms: _329  and  _330
REMARK  118  A    between atoms: _332  and  _334
REMARK  119  A    between atoms: _334  and  _335
REMARK  120  A    between atoms: _334  and  _337
REMARK  121  A    between atoms: _337  and  _338
REMARK  122  A    between atoms: _338  and  _339
REMARK  123  A    between atoms: _344  and  _346
REMARK  124  A    between atoms: _346  and  _347
REMARK  125  A    between atoms: _349  and  _351
REMARK  126  A    between atoms: _351  and  _352
REMARK  127  A    between atoms: _351  and  _354
REMARK  128  A    between atoms: _354  and  _355
REMARK  129  A    between atoms: _360  and  _362
REMARK  130  A    between atoms: _362  and  _363
REMARK  131  A    between atoms: _362  and  _365
REMARK  132  A    between atoms: _365  and  _366
REMARK  133  A    between atoms: _366  and  _367
REMARK  134  A    between atoms: _367  and  _368
REMARK  135  A    between atoms: _368  and  ZN_631
REMARK  136  A    between atoms: _370  and  _372
REMARK  137  A    between atoms: _372  and  _373
REMARK  138  A    between atoms: _372  and  _375
REMARK  139  A    between atoms: _375  and  _376
REMARK  140  A    between atoms: _378  and  _380
REMARK  141  A    between atoms: _380  and  _381
REMARK  142  A    between atoms: _380  and  _383
REMARK  143  A    between atoms: _383  and  _384
REMARK  144  A    between atoms: _387  and  _389
REMARK  145  A    between atoms: _389  and  _390
REMARK  146  A    between atoms: _392  and  _394
REMARK  147  A    between atoms: _394  and  _395
REMARK  148  A    between atoms: _394  and  _397
REMARK  149  A    between atoms: _397  and  _398
REMARK  150  A    between atoms: _401  and  _403
REMARK  151  A    between atoms: _403  and  _404
REMARK  152  A    between atoms: _406  and  _408
REMARK  153  A    between atoms: _408  and  _409
REMARK  154  A    between atoms: _408  and  _411
REMARK  155  A    between atoms: _411  and  _412
REMARK  156  A    between atoms: _412  and  _413
REMARK  157  A    between atoms: _416  and  _418
REMARK  158  A    between atoms: _418  and  _419
REMARK  159  A    between atoms: _418  and  _421
REMARK  160  A    between atoms: _424  and  _426
REMARK  161  A    between atoms: _426  and  _427
REMARK  162  A    between atoms: _426  and  _429
REMARK  163  A    between atoms: _429  and  _430
REMARK  164  A    between atoms: _435  and  _436
REMARK  165  A    between atoms: _438  and  _440
REMARK  166  A    between atoms: _440  and  _441
REMARK  167  A    between atoms: _440  and  _443
REMARK  168  A    between atoms: _443  and  _444
REMARK  169  A    between atoms: _447  and  _449
REMARK  170  A    between atoms: _449  and  _450
REMARK  171  A    between atoms: _449  and  _452
REMARK  172  A    between atoms: _452  and  _453
REMARK  173  A    between atoms: _453  and  _454
REMARK  174  A    between atoms: _454  and  _455
REMARK  175  A    between atoms: _464  and  _466
REMARK  176  A    between atoms: _466  and  _467
REMARK  177  A    between atoms: _466  and  _469
REMARK  178  A    between atoms: _469  and  _470
REMARK  179  A    between atoms: _473  and  _475
REMARK  180  A    between atoms: _475  and  _476
REMARK  181  A    between atoms: _475  and  _478
REMARK  182  A    between atoms: _478  and  _479
REMARK  183  A    between atoms: _484  and  _486
REMARK  184  A    between atoms: _486  and  _487
REMARK  185  A    between atoms: _486  and  _489
REMARK  186  A    between atoms: _492  and  _494
REMARK  187  A    between atoms: _494  and  _495
REMARK  188  A    between atoms: _494  and  _497
REMARK  189  A    between atoms: _497  and  _498
REMARK  190  A    between atoms: _503  and  _505
REMARK  191  A    between atoms: _505  and  _506
REMARK  192  A    between atoms: _505  and  _508
REMARK  193  A    between atoms: _508  and  _509
REMARK  194  A    between atoms: _512  and  _514
REMARK  195  A    between atoms: _514  and  _515
REMARK  196  A    between atoms: _514  and  _517
REMARK  197  A    between atoms: _517  and  _518
REMARK  198  A    between atoms: _520  and  _522
REMARK  199  A    between atoms: _522  and  _523
REMARK  200  A    between atoms: _522  and  _525
REMARK  201  A    between atoms: _525  and  _526
REMARK  202  A    between atoms: _526  and  _527
REMARK  203  A    between atoms: _527  and  _528
REMARK  204  A    between atoms: _537  and  _539
REMARK  205  A    between atoms: _539  and  _540
REMARK  206  A    between atoms: _539  and  _542
REMARK  207  A    between atoms: _542  and  _543
REMARK  208  A    between atoms: _546  and  _548
REMARK  209  A    between atoms: _548  and  _549
REMARK  210  A    between atoms: _548  and  _551
REMARK  211  A    between atoms: _551  and  _552
REMARK  212  A    between atoms: _555  and  _557
REMARK  213  A    between atoms: _557  and  _558
REMARK  214  A    between atoms: _557  and  _560
REMARK  215  A    between atoms: _560  and  _561
REMARK  216  A    between atoms: _564  and  _566
REMARK  217  A    between atoms: _566  and  _567
REMARK  218  A    between atoms: _566  and  _569
REMARK  219  A    between atoms: _569  and  _570
REMARK  220  A    between atoms: _575  and  _576
REMARK  221  A    between atoms: _578  and  _580
REMARK  222  A    between atoms: _580  and  _581
REMARK  223  A    between atoms: _580  and  _583
REMARK  224  A    between atoms: _583  and  _584
REMARK  225  A    between atoms: _586  and  _588
REMARK  226  A    between atoms: _588  and  _589
REMARK  227  A    between atoms: _588  and  _591
REMARK  228  A    between atoms: _591  and  _592
REMARK  229  A    between atoms: _597  and  _598
REMARK  230  A    between atoms: _600  and  _602
REMARK  231  A    between atoms: _602  and  _603
REMARK  232  A    between atoms: _602  and  _605
REMARK  233  A    between atoms: _605  and  _606
REMARK  234  A    between atoms: _612  and  _614
REMARK  235  A    between atoms: _614  and  _615
REMARK  236  A    between atoms: _614  and  _617
REMARK  237  A    between atoms: _620  and  _622
REMARK  238  A    between atoms: _622  and  _623
REMARK  239  A    between atoms: _622  and  _625
REMARK  240  A    between atoms: _625  and  _626
REMARK                            x       y       z     vdW  Elec       q    Type
REMARK                         _______ _______ _______ _____ _____    ______ ____
ROOT
ATOM      1  C   THR A   1      54.848  28.980 -14.283  0.00  0.00    +0.241 C 
ATOM      2  N   ASP A   2      53.547  28.802 -13.884  0.00  0.00    -0.298 N 
ATOM      3  H   ASP A   2      53.352  28.648 -12.874  0.00  0.00    +0.150 HD
ATOM      4  O   THR A   1      55.221  29.118 -15.508  0.00  0.00    -0.274 OA
ENDROOT
BRANCH   1   5
ATOM      5  CA  THR A   1      55.847  28.965 -13.113  0.00  0.00    +0.172 C 
BRANCH   5   6
ATOM      6  N   THR A   1      55.356  29.735 -11.922  0.00  0.00    -0.236 NA
ATOM      7  H   THR A   1      55.272  29.240 -11.011  0.00  0.00    +0.142 HD
ENDBRANCH   5   6
BRANCH   5   8
ATOM      8  CB  THR A   1      56.235  27.523 -12.647  0.00  0.00    +0.135 C 
ATOM      9  CG2 THR A   1      56.721  26.686 -13.798  0.00  0.00    +0.034 C 
BRANCH   8  10
ATOM     10  OG1 THR A   1      57.329  27.666 -11.787  0.00  0.00    -0.383 OA
ATOM     11  HG1 THR A   1      57.612  26.774 -11.464  0.00  0.00    +0.210 HD
ENDBRANCH   8  10
ENDBRANCH   5   8
ENDBRANCH   1   5
BRANCH   2  12
ATOM     12  CA  ASP A   2      52.422  28.820 -14.820  0.00  0.00    +0.148 C 
BRANCH  12  13
ATOM     13  C   ASP A   2      52.428  30.120 -15.701  0.00  0.00    +0.227 C 
ATOM     14  O   ASP A   2      52.236  30.059 -16.923  0.00  0.00    -0.286 OA
ENDBRANCH  12  13
BRANCH  12  15
ATOM     15  CB  ASP A   2      51.055  28.724 -14.057  0.00  0.00    +0.142 C 
BRANCH  15  16
ATOM     16  CG  ASP A   2      50.470  27.355 -14.064  0.00  0.00    +0.367 C 
ATOM     17  OD2 ASP A   2      49.219  27.264 -13.491  0.00  0.00    -0.246 OA
ATOM     18  OD1 ASP A   2      51.187  26.448 -14.514  0.00  0.00    -0.246 OA
ENDBRANCH  15  16
ENDBRANCH  12  15
ENDBRANCH   2  12
TORSDOF 8
REMARK  Name = ../refined-set-2016/4tmn/4tmn_pocket.pdb
REMARK  240 active torsions:
REMARK  status: ('A' for Active; 'I' for Inactive)
REMARK    1  A    between atoms: _1  and  _3
REMARK    2  A    between atoms: _3  and  _4
REMARK    3  A    between atoms: _3  and  _6
REMARK    4  A    between atoms: _6  and  _7
REMARK    5  A    between atoms: _12  and  _13
REMARK    6  A    between atoms: _15  and  _17
REMARK    7  A    between atoms: _17  and  _18
REMARK    8  A    between atoms: _17  and  _20
REMARK    9  A    between atoms: _20  and  _21
REMARK   10  A    between atoms: _26  and  _27
REMARK   11  A    between atoms: _29  and  _31
REMARK   12  A    between atoms: _31  and  _32
REMARK   13  A    between atoms: _31  and  _34
REMARK   14  A    between atoms: _34  and  _35
REMARK   15  A    between atoms: _40  and  _42
REMARK   16  A    between atoms: _42  and  _43
REMARK   17  A    between atoms: _42  and  _45
REMARK   18  A    between atoms: _45  and  _46
REMARK   19  A    between atoms: _51  and  _53
REMARK   20  A    between atoms: _53  and  _54
REMARK   21  A    between atoms: _57  and  _59
REMARK   22  A    between atoms: _59  and  _60
REMARK   23  A    between atoms: _59  and  _62
REMARK   24  A    between atoms: _62  and  _63
REMARK   25  A    between atoms: _69  and  _71
REMARK   26  A    between atoms: _71  and  _72
REMARK   27  A    between atoms: _71  and  _74
REMARK   28  A    between atoms: _74  and  _75
REMARK   29  A    between atoms: _85  and  _87
REMARK   30  A    between atoms: _87  and  _88
REMARK   31  A    between atoms: _87  and  _90
REMARK   32  A    between atoms: _90  and  _91
REMARK   33  A    between atoms: _96  and  _98
REMARK   34  A    between atoms: _98  and  _99
REMARK   35  A    between atoms: _103  and  _104
REMARK   36  A    between atoms: _103  and  _106
REMARK   37  A    between atoms: _106  and  _107
REMARK   38  A    between atoms: _109  and  _111
REMARK   39  A    between atoms: _111  and  _112
REMARK   40  A    between atoms: _111  and  _114
REMARK   41  A    between atoms: _114  and  _115
REMARK   42  A    between atoms: _115  and  _116
REMARK   43  A    between atoms: _119  and  _121
REMARK   44  A    between atoms: _121  and  _122
REMARK   45  A    between atoms: _121  and  _124
REMARK   46  A    between atoms: _124  and  _125
REMARK   47  A    between atoms: _125  and  _126
REMARK   48  A    between atoms: _128  and  _130
REMARK   49  A    between atoms: _130  and  _131
REMARK   50  A    between atoms: _130  and  _133
REMARK   51  A    between atoms: _136  and  _138
REMARK   52  A    between atoms: _138  and  _139
REMARK   53  A    between atoms: _138  and  _141
REMARK   54  A    between atoms: _141  and  _142
REMARK   55  A    between atoms: _147  and  _148
REMARK   56  A    between atoms: _150  and  _152
REMARK   57  A    between atoms: _152  and  _153
REMARK   58  A    between atoms: _155  and  _157
REMARK   59  A    between atoms: _157  and  _158
REMARK   60  A    between atoms: _157  and  _160
REMARK   61  A    between atoms: _160  and  _161
REMARK   62  A    between atoms: _164  and  _166
REMARK   63  A    between atoms: _166  and  _167
REMARK   64  A    between atoms: _166  and  _169
REMARK   65  A    between atoms: _169  and  _170
REMARK   66  A    between atoms: _176  and  _178
REMARK   67  A    between atoms: _178  and  _179
REMARK   68  A    between atoms: _178  and  _181
REMARK   69  A    between atoms: _181  and  _182
REMARK   70  A    between atoms: _185  and  _187
REMARK   71  A    between atoms: _187  and  _188
REMARK   72  A    between atoms: _190  and  _192
REMARK   73  A    between atoms: _192  and  _193
REMARK   74  A    between atoms: _192  and  _195
REMARK   75  A    between atoms: _195  and  _196
REMARK   76  A    between atoms: _199  and  _201
REMARK   77  A    between atoms: _201  and  _202
REMARK   78  A    between atoms: _201  and  _204
REMARK   79  A    between atoms: _207  and  _209
REMARK   80  A    between atoms: _209  and  _210
REMARK   81  A    between atoms: _209  and  _212
REMARK   82  A    between atoms: _215  and  _217
REMARK   83  A    between atoms: _217  and  _218
REMARK   84  A    between atoms: _221  and  _223
REMARK   85  A    between atoms: _234  and  _237
REMARK   86  A    between atoms: _237  and  _238
REMARK   87  A    between atoms: _238  and  _239
REMARK   88  A    between atoms: _244  and  _247
REMARK   89  A    between atoms: _247  and  _248
REMARK   90  A    between atoms: _253  and  _256
REMARK   91  A    between atoms: _256  and  _257
REMARK   92  A    between atoms: _262  and  _263
REMARK   93  A    between atoms: _271  and  _273
REMARK   94  A    between atoms: _273  and  _274
REMARK   95  A    between atoms: _277  and  _279
REMARK   96  A    between atoms: _279  and  _280
REMARK   97  A    between atoms: _279  and  _282
REMARK   98  A    between atoms: _282  and  _283
REMARK   99  A    between atoms: _286  and  _288
REMARK  100  A    between atoms: _288  and  _289
REMARK  101  A    between atoms: _288  and  _291
REMARK  102  A    between atoms: _291  and  _292
REMARK  103  A    between atoms: _295  and  _297
REMARK  104  A    between atoms: _297  and  _298
REMARK  105  A    between atoms: _300  and  _302
REMARK  106  A    between atoms: _302  and  _303
REMARK  107  A    between atoms: _302  and  _305
REMARK  108  A    between atoms: _305  and  _306
REMARK  109  A    between atoms: _309  and  _311
REMARK  110  A    between atoms: _311  and  _312
REMARK  111  A    between atoms: _311  and  _314
REMARK  112  A    between atoms: _314  and  _315
REMARK  113  A    between atoms: _318  and  _320
REMARK  114  A    between atoms: _320  and  _321
REMARK  115  A    between atoms: _320  and  _323
REMARK  116  A    between atoms: _323  and  _324
REMARK  117  A    between atoms: _329  and  _330
REMARK  118  A    between atoms: _332  and  _334
REMARK  119  A    between atoms: _334  and  _335
REMARK  120  A    between atoms: _334  and  _337
REMARK  121  A    between atoms: _337  and  _338
REMARK  122  A    between atoms: _338  and  _339
REMARK  123  A    between atoms: _344  and  _346
REMARK  124  A    between atoms: _346  and  _347
REMARK  125  A    between atoms: _349  and  _351
REMARK  126  A    between atoms: _351  and  _352
REMARK  127  A    between atoms: _351  and  _354
REMARK  128  A    between atoms: _354  and  _355
REMARK  129  A    between atoms: _360  and  _362
REMARK  130  A    between atoms: _362  and  _363
REMARK  131  A    between atoms: _362  and  _365
REMARK  132  A    between atoms: _365  and  _366
REMARK  133  A    between atoms: _366  and  _367
REMARK  134  A    between atoms: _367  and  _368
REMARK  135  A    between atoms: _368  and  ZN_631
REMARK  136  A    between atoms: _370  and  _372
REMARK  137  A    between atoms: _372  and  _373
REMARK  138  A    between atoms: _372  and  _375
REMARK  139  A    between atoms: _375  and  _376
REMARK  140  A    between atoms: _378  and  _380
REMARK  141  A    between atoms: _380  and  _381
REMARK  142  A    between atoms: _380  and  _383
REMARK  143  A    between atoms: _383  and  _384
REMARK  144  A    between atoms: _387  and  _389
REMARK  145  A    between atoms: _389  and  _390
REMARK  146  A    between atoms: _392  and  _394
REMARK  147  A    between atoms: _394  and  _395
REMARK  148  A    between atoms: _394  and  _397
REMARK  149  A    between atoms: _397  and  _398
REMARK  150  A    between atoms: _401  and  _403
REMARK  151  A    between atoms: _403  and  _404
REMARK  152  A    between atoms: _406  and  _408
REMARK  153  A    between atoms: _408  and  _409
REMARK  154  A    between atoms: _408  and  _411
REMARK  155  A    between atoms: _411  and  _412
REMARK  156  A    between atoms: _412  and  _413
REMARK  157  A    between atoms: _416  and  _418
REMARK  158  A    between atoms: _418  and  _419
REMARK  159  A    between atoms: _418  and  _421
REMARK  160  A    between atoms: _424  and  _426
REMARK  161  A    between atoms: _426  and  _427
REMARK  162  A    between atoms: _426  and  _429
REMARK  163  A    between atoms: _429  and  _430
REMARK  164  A    between atoms: _435  and  _436
REMARK  165  A    between atoms: _438  and  _440
REMARK  166  A    between atoms: _440  and  _441
REMARK  167  A    between atoms: _440  and  _443
REMARK  168  A    between atoms: _443  and  _444
REMARK  169  A    between atoms: _447  and  _449
REMARK  170  A    between atoms: _449  and  _450
REMARK  171  A    between atoms: _449  and  _452
REMARK  172  A    between atoms: _452  and  _453
REMARK  173  A    between atoms: _453  and  _454
REMARK  174  A    between atoms: _454  and  _455
REMARK  175  A    between atoms: _464  and  _466
REMARK  176  A    between atoms: _466  and  _467
REMARK  177  A    between atoms: _466  and  _469
REMARK  178  A    between atoms: _469  and  _470
REMARK  179  A    between atoms: _473  and  _475
REMARK  180  A    between atoms: _475  and  _476
REMARK  181  A    between atoms: _475  and  _478
REMARK  182  A    between atoms: _478  and  _479
REMARK  183  A    between atoms: _484  and  _486
REMARK  184  A    between atoms: _486  and  _487
REMARK  185  A    between atoms: _486  and  _489
REMARK  186  A    between atoms: _492  and  _494
REMARK  187  A    between atoms: _494  and  _495
REMARK  188  A    between atoms: _494  and  _497
REMARK  189  A    between atoms: _497  and  _498
REMARK  190  A    between atoms: _503  and  _505
REMARK  191  A    between atoms: _505  and  _506
REMARK  192  A    between atoms: _505  and  _508
REMARK  193  A    between atoms: _508  and  _509
REMARK  194  A    between atoms: _512  and  _514
REMARK  195  A    between atoms: _514  and  _515
REMARK  196  A    between atoms: _514  and  _517
REMARK  197  A    between atoms: _517  and  _518
REMARK  198  A    between atoms: _520  and  _522
REMARK  199  A    between atoms: _522  and  _523
REMARK  200  A    between atoms: _522  and  _525
REMARK  201  A    between atoms: _525  and  _526
REMARK  202  A    between atoms: _526  and  _527
REMARK  203  A    between atoms: _527  and  _528
REMARK  204  A    between atoms: _537  and  _539
REMARK  205  A    between atoms: _539  and  _540
REMARK  206  A    between atoms: _539  and  _542
REMARK  207  A    between atoms: _542  and  _543
REMARK  208  A    between atoms: _546  and  _548
REMARK  209  A    between atoms: _548  and  _549
REMARK  210  A    between atoms: _548  and  _551
REMARK  211  A    between atoms: _551  and  _552
REMARK  212  A    between atoms: _555  and  _557
REMARK  213  A    between atoms: _557  and  _558
REMARK  214  A    between atoms: _557  and  _560
REMARK  215  A    between atoms: _560  and  _561
REMARK  216  A    between atoms: _564  and  _566
REMARK  217  A    between atoms: _566  and  _567
REMARK  218  A    between atoms: _566  and  _569
REMARK  219  A    between atoms: _569  and  _570
REMARK  220  A    between atoms: _575  and  _576
REMARK  221  A    between atoms: _578  and  _580
REMARK  222  A    between atoms: _580  and  _581
REMARK  223  A    between atoms: _580  and  _583
REMARK  224  A    between atoms: _583  and  _584
REMARK  225  A    between atoms: _586  and  _588
REMARK  226  A    between atoms: _588  and  _589
REMARK  227  A    between atoms: _588  and  _591
REMARK  228  A    between atoms: _591  and  _592
REMARK  229  A    between atoms: _597  and  _598
REMARK  230  A    between atoms: _600  and  _602
REMARK  231  A    between atoms: _602  and  _603
REMARK  232  A    between atoms: _602  and  _605
REMARK  233  A    between atoms: _605  and  _606
REMARK  234  A    between atoms: _612  and  _614
REMARK  235  A    between atoms: _614  and  _615
REMARK  236  A    between atoms: _614  and  _617
REMARK  237  A    between atoms: _620  and  _622
REMARK  238  A    between atoms: _622  and  _623
REMARK  239  A    between atoms: _622  and  _625
REMARK  240  A    between atoms: _625  and  _626
REMARK                            x       y       z     vdW  Elec       q    Type
REMARK                         _______ _______ _______ _____ _____    ______ ____
ROOT
ATOM      1  C   ILE A   3      54.959  20.239 -17.964  0.00  0.00    +0.241 C 
ATOM      2  N   TYR A   4      53.863  19.741 -17.359  0.00  0.00    -0.297 N 
ATOM      3  H   TYR A   4      52.917  20.004 -17.702  0.00  0.00    +0.150 HD
ATOM      4  O   ILE A   3      56.082  19.908 -17.584  0.00  0.00    -0.273 OA
ENDROOT
BRANCH   2   5
ATOM      5  CA  TYR A   4      53.999  18.823 -16.210  0.00  0.00    +0.153 C 
BRANCH   5   6
ATOM      6  C   TYR A   4      54.236  17.352 -16.525  0.00  0.00    +0.241 C 
ATOM      7  O   TYR A   4      53.461  16.492 -16.107  0.00  0.00    -0.273 OA
ATOM      8  N   GLN A   5      55.297  17.077 -17.268  0.00  0.00    -0.298 N 
ATOM      9  H   GLN A   5      55.876  17.867 -17.617  0.00  0.00    +0.150 HD
BRANCH   8  10
ATOM     10  CA  GLN A   5      55.689  15.728 -17.617  0.00  0.00    +0.137 C 
BRANCH  10  11
ATOM     11  C   GLN A   5      57.146  15.574 -17.944  0.00  0.00    +0.227 C 
ATOM     12  O   GLN A   5      57.763  16.487 -18.516  0.00  0.00    -0.286 OA
ENDBRANCH  10  11
BRANCH  10  13
ATOM     13  CB  GLN A   5      54.779  14.984 -18.593  0.00  0.00    +0.037 C 
BRANCH  13  14
ATOM     14  CG  GLN A   5      54.845  15.629 -19.960  0.00  0.00    +0.087 C 
BRANCH  14  15
ATOM     15  CD  GLN A   5      53.817  15.104 -21.008  0.00  0.00    +0.219 C 
ATOM     16  OE1 GLN A   5      52.664  14.579 -20.741  0.00  0.00    -0.275 OA
ATOM     17  NE2 GLN A   5      54.221  15.316 -22.277  0.00  0.00    -0.329 N 
ATOM     18 HE21 GLN A   5      55.153  15.739 -22.462  0.00  0.00    +0.145 HD
ATOM     19 HE22 GLN A   5      53.601  15.056 -23.070  0.00  0.00    +0.145 HD
ENDBRANCH  14  15
ENDBRANCH  13  14
ENDBRANCH  10  13
ENDBRANCH   8  10
ENDBRANCH   5   6
BRANCH   5  20
ATOM     20  CB  TYR A   4      52.797  18.967 -15.255  0.00  0.00    +0.055 C 
BRANCH  20  21
ATOM     21  CG  TYR A   4      53.048  18.710 -13.788  0.00  0.00    -0.020 A 
ATOM     22  CD2 TYR A   4      53.913  19.501 -13.050  0.00  0.00    -0.001 A 
ATOM     23  CE2 TYR A   4      54.066  19.277 -11.668  0.00  0.00    +0.036 A 
ATOM     24  CZ  TYR A   4      53.348  18.238 -11.066  0.00  0.00    +0.134 A 
ATOM     25  CE1 TYR A   4      52.472  17.444 -11.784  0.00  0.00    +0.036 A 
ATOM     26  CD1 TYR A   4      52.334  17.696 -13.160  0.00  0.00    -0.001 A 
BRANCH  24  27
ATOM     27  OH  TYR A   4      53.471  18.023  -9.752  0.00  0.00    -0.506 OA
ATOM     28  HH  TYR A   4      54.416  17.820  -9.539  0.00  0.00    +0.292 HD
ENDBRANCH  24  27
ENDBRANCH  20  21
ENDBRANCH   5  20
ENDBRANCH   2   5
BRANCH   1  29
ATOM     29  CA  ILE A   3      54.811  21.270 -19.099  0.00  0.00    +0.149 C 
BRANCH  29  32
ATOM     30  C   LEU A   2      55.890  23.142 -17.919  0.00  0.00    +0.241 C 
ATOM     31  O   LEU A   2      55.104  23.042 -16.961  0.00  0.00    -0.273 OA
ATOM     32  N   ILE A   3      55.835  22.351 -18.991  0.00  0.00    -0.297 N 
ATOM     33  H   ILE A   3      56.516  22.489 -19.764  0.00  0.00    +0.150 HD
BRANCH  30  34
ATOM     34  CA  LEU A   2      56.988  24.221 -17.889  0.00  0.00    +0.149 C 
BRANCH  34  36
ATOM     35  C   GLY A   1      55.462  26.011 -18.500  0.00  0.00    +0.240 C 
ATOM     36  N   LEU A   2      56.442  25.560 -17.749  0.00  0.00    -0.297 N 
ATOM     37  H   LEU A   2      56.843  26.188 -17.024  0.00  0.00    +0.150 HD
ATOM     38  O   GLY A   1      54.900  25.332 -19.335  0.00  0.00    -0.274 OA
BRANCH  35  39
ATOM     39  CA  GLY A   1      55.031  27.448 -18.275  0.00  0.00    +0.169 C 
BRANCH  39  40
ATOM     40  N   GLY A   1      56.114  28.322 -17.818  0.00  0.00    -0.236 NA
ATOM     41  H   GLY A   1      56.120  28.660 -16.835  0.00  0.00    +0.142 HD
ENDBRANCH  39  40
ENDBRANCH  35  39
ENDBRANCH  34  36
BRANCH  34  42
ATOM     42  CB  LEU A   2      58.030  23.966 -16.763  0.00  0.00    +0.029 C 
BRANCH  42  43
ATOM     43  CG  LEU A   2      59.310  24.870 -16.804  0.00  0.00    +0.002 C 
ATOM     44  CD2 LEU A   2      59.965  24.905 -15.433  0.00  0.00    +0.000 C 
ATOM     45  CD1 LEU A   2      60.297  24.302 -17.800  0.00  0.00    +0.000 C 
ENDBRANCH  42  43
ENDBRANCH  34  42
ENDBRANCH  30  34
ENDBRANCH  29  32
BRANCH  29  46
ATOM     46  CB  ILE A   3      54.951  20.736 -20.510  0.00  0.00    +0.027 C 
ATOM     47  CG2 ILE A   3      54.344  19.377 -20.961  0.00  0.00    +0.002 C 
BRANCH  46  48
ATOM     48  CG1 ILE A   3      54.420  21.844 -21.357  0.00  0.00    +0.002 C 
ATOM     49  CD1 ILE A   3      54.844  21.467 -22.739  0.00  0.00    +0.000 C 
ENDBRANCH  46  48
ENDBRANCH  29  46
ENDBRANCH   1  29
TORSDOF 20
REMARK  Name = ../refined-set-2016/4tmn/4tmn_pocket.pdb
REMARK  240 active torsions:
REMARK  status: ('A' for Active; 'I' for Inactive)
REMARK    1  A    between atoms: _1  and  _3
REMARK    2  A    between atoms: _3  and  _4
REMARK    3  A    between atoms: _3  and  _6
REMARK    4  A    between atoms: _6  and  _7
REMARK    5  A    between atoms: _12  and  _13
REMARK    6  A    between atoms: _15  and  _17
REMARK    7  A    between atoms: _17  and  _18
REMARK    8  A    between atoms: _17  and  _20
REMARK    9  A    between atoms: _20  and  _21
REMARK   10  A    between atoms: _26  and  _27
REMARK   11  A    between atoms: _29  and  _31
REMARK   12  A    between atoms: _31  and  _32
REMARK   13  A    between atoms: _31  and  _34
REMARK   14  A    between atoms: _34  and  _35
REMARK   15  A    between atoms: _40  and  _42
REMARK   16  A    between atoms: _42  and  _43
REMARK   17  A    between atoms: _42  and  _45
REMARK   18  A    between atoms: _45  and  _46
REMARK   19  A    between atoms: _51  and  _53
REMARK   20  A    between atoms: _53  and  _54
REMARK   21  A    between atoms: _57  and  _59
REMARK   22  A    between atoms: _59  and  _60
REMARK   23  A    between atoms: _59  and  _62
REMARK   24  A    between atoms: _62  and  _63
REMARK   25  A    between atoms: _69  and  _71
REMARK   26  A    between atoms: _71  and  _72
REMARK   27  A    between atoms: _71  and  _74
REMARK   28  A    between atoms: _74  and  _75
REMARK   29  A    between atoms: _85  and  _87
REMARK   30  A    between atoms: _87  and  _88
REMARK   31  A    between atoms: _87  and  _90
REMARK   32  A    between atoms: _90  and  _91
REMARK   33  A    between atoms: _96  and  _98
REMARK   34  A    between atoms: _98  and  _99
REMARK   35  A    between atoms: _103  and  _104
REMARK   36  A    between atoms: _103  and  _106
REMARK   37  A    between atoms: _106  and  _107
REMARK   38  A    between atoms: _109  and  _111
REMARK   39  A    between atoms: _111  and  _112
REMARK   40  A    between atoms: _111  and  _114
REMARK   41  A    between atoms: _114  and  _115
REMARK   42  A    between atoms: _115  and  _116
REMARK   43  A    between atoms: _119  and  _121
REMARK   44  A    between atoms: _121  and  _122
REMARK   45  A    between atoms: _121  and  _124
REMARK   46  A    between atoms: _124  and  _125
REMARK   47  A    between atoms: _125  and  _126
REMARK   48  A    between atoms: _128  and  _130
REMARK   49  A    between atoms: _130  and  _131
REMARK   50  A    between atoms: _130  and  _133
REMARK   51  A    between atoms: _136  and  _138
REMARK   52  A    between atoms: _138  and  _139
REMARK   53  A    between atoms: _138  and  _141
REMARK   54  A    between atoms: _141  and  _142
REMARK   55  A    between atoms: _147  and  _148
REMARK   56  A    between atoms: _150  and  _152
REMARK   57  A    between atoms: _152  and  _153
REMARK   58  A    between atoms: _155  and  _157
REMARK   59  A    between atoms: _157  and  _158
REMARK   60  A    between atoms: _157  and  _160
REMARK   61  A    between atoms: _160  and  _161
REMARK   62  A    between atoms: _164  and  _166
REMARK   63  A    between atoms: _166  and  _167
REMARK   64  A    between atoms: _166  and  _169
REMARK   65  A    between atoms: _169  and  _170
REMARK   66  A    between atoms: _176  and  _178
REMARK   67  A    between atoms: _178  and  _179
REMARK   68  A    between atoms: _178  and  _181
REMARK   69  A    between atoms: _181  and  _182
REMARK   70  A    between atoms: _185  and  _187
REMARK   71  A    between atoms: _187  and  _188
REMARK   72  A    between atoms: _190  and  _192
REMARK   73  A    between atoms: _192  and  _193
REMARK   74  A    between atoms: _192  and  _195
REMARK   75  A    between atoms: _195  and  _196
REMARK   76  A    between atoms: _199  and  _201
REMARK   77  A    between atoms: _201  and  _202
REMARK   78  A    between atoms: _201  and  _204
REMARK   79  A    between atoms: _207  and  _209
REMARK   80  A    between atoms: _209  and  _210
REMARK   81  A    between atoms: _209  and  _212
REMARK   82  A    between atoms: _215  and  _217
REMARK   83  A    between atoms: _217  and  _218
REMARK   84  A    between atoms: _221  and  _223
REMARK   85  A    between atoms: _234  and  _237
REMARK   86  A    between atoms: _237  and  _238
REMARK   87  A    between atoms: _238  and  _239
REMARK   88  A    between atoms: _244  and  _247
REMARK   89  A    between atoms: _247  and  _248
REMARK   90  A    between atoms: _253  and  _256
REMARK   91  A    between atoms: _256  and  _257
REMARK   92  A    between atoms: _262  and  _263
REMARK   93  A    between atoms: _271  and  _273
REMARK   94  A    between atoms: _273  and  _274
REMARK   95  A    between atoms: _277  and  _279
REMARK   96  A    between atoms: _279  and  _280
REMARK   97  A    between atoms: _279  and  _282
REMARK   98  A    between atoms: _282  and  _283
REMARK   99  A    between atoms: _286  and  _288
REMARK  100  A    between atoms: _288  and  _289
REMARK  101  A    between atoms: _288  and  _291
REMARK  102  A    between atoms: _291  and  _292
REMARK  103  A    between atoms: _295  and  _297
REMARK  104  A    between atoms: _297  and  _298
REMARK  105  A    between atoms: _300  and  _302
REMARK  106  A    between atoms: _302  and  _303
REMARK  107  A    between atoms: _302  and  _305
REMARK  108  A    between atoms: _305  and  _306
REMARK  109  A    between atoms: _309  and  _311
REMARK  110  A    between atoms: _311  and  _312
REMARK  111  A    between atoms: _311  and  _314
REMARK  112  A    between atoms: _314  and  _315
REMARK  113  A    between atoms: _318  and  _320
REMARK  114  A    between atoms: _320  and  _321
REMARK  115  A    between atoms: _320  and  _323
REMARK  116  A    between atoms: _323  and  _324
REMARK  117  A    between atoms: _329  and  _330
REMARK  118  A    between atoms: _332  and  _334
REMARK  119  A    between atoms: _334  and  _335
REMARK  120  A    between atoms: _334  and  _337
REMARK  121  A    between atoms: _337  and  _338
REMARK  122  A    between atoms: _338  and  _339
REMARK  123  A    between atoms: _344  and  _346
REMARK  124  A    between atoms: _346  and  _347
REMARK  125  A    between atoms: _349  and  _351
REMARK  126  A    between atoms: _351  and  _352
REMARK  127  A    between atoms: _351  and  _354
REMARK  128  A    between atoms: _354  and  _355
REMARK  129  A    between atoms: _360  and  _362
REMARK  130  A    between atoms: _362  and  _363
REMARK  131  A    between atoms: _362  and  _365
REMARK  132  A    between atoms: _365  and  _366
REMARK  133  A    between atoms: _366  and  _367
REMARK  134  A    between atoms: _367  and  _368
REMARK  135  A    between atoms: _368  and  ZN_631
REMARK  136  A    between atoms: _370  and  _372
REMARK  137  A    between atoms: _372  and  _373
REMARK  138  A    between atoms: _372  and  _375
REMARK  139  A    between atoms: _375  and  _376
REMARK  140  A    between atoms: _378  and  _380
REMARK  141  A    between atoms: _380  and  _381
REMARK  142  A    between atoms: _380  and  _383
REMARK  143  A    between atoms: _383  and  _384
REMARK  144  A    between atoms: _387  and  _389
REMARK  145  A    between atoms: _389  and  _390
REMARK  146  A    between atoms: _392  and  _394
REMARK  147  A    between atoms: _394  and  _395
REMARK  148  A    between atoms: _394  and  _397
REMARK  149  A    between atoms: _397  and  _398
REMARK  150  A    between atoms: _401  and  _403
REMARK  151  A    between atoms: _403  and  _404
REMARK  152  A    between atoms: _406  and  _408
REMARK  153  A    between atoms: _408  and  _409
REMARK  154  A    between atoms: _408  and  _411
REMARK  155  A    between atoms: _411  and  _412
REMARK  156  A    between atoms: _412  and  _413
REMARK  157  A    between atoms: _416  and  _418
REMARK  158  A    between atoms: _418  and  _419
REMARK  159  A    between atoms: _418  and  _421
REMARK  160  A    between atoms: _424  and  _426
REMARK  161  A    between atoms: _426  and  _427
REMARK  162  A    between atoms: _426  and  _429
REMARK  163  A    between atoms: _429  and  _430
REMARK  164  A    between atoms: _435  and  _436
REMARK  165  A    between atoms: _438  and  _440
REMARK  166  A    between atoms: _440  and  _441
REMARK  167  A    between atoms: _440  and  _443
REMARK  168  A    between atoms: _443  and  _444
REMARK  169  A    between atoms: _447  and  _449
REMARK  170  A    between atoms: _449  and  _450
REMARK  171  A    between atoms: _449  and  _452
REMARK  172  A    between atoms: _452  and  _453
REMARK  173  A    between atoms: _453  and  _454
REMARK  174  A    between atoms: _454  and  _455
REMARK  175  A    between atoms: _464  and  _466
REMARK  176  A    between atoms: _466  and  _467
REMARK  177  A    between atoms: _466  and  _469
REMARK  178  A    between atoms: _469  and  _470
REMARK  179  A    between atoms: _473  and  _475
REMARK  180  A    between atoms: _475  and  _476
REMARK  181  A    between atoms: _475  and  _478
REMARK  182  A    between atoms: _478  and  _479
REMARK  183  A    between atoms: _484  and  _486
REMARK  184  A    between atoms: _486  and  _487
REMARK  185  A    between atoms: _486  and  _489
REMARK  186  A    between atoms: _492  and  _494
REMARK  187  A    between atoms: _494  and  _495
REMARK  188  A    between atoms: _494  and  _497
REMARK  189  A    between atoms: _497  and  _498
REMARK  190  A    between atoms: _503  and  _505
REMARK  191  A    between atoms: _505  and  _506
REMARK  192  A    between atoms: _505  and  _508
REMARK  193  A    between atoms: _508  and  _509
REMARK  194  A    between atoms: _512  and  _514
REMARK  195  A    between atoms: _514  and  _515
REMARK  196  A    between atoms: _514  and  _517
REMARK  197  A    between atoms: _517  and  _518
REMARK  198  A    between atoms: _520  and  _522
REMARK  199  A    between atoms: _522  and  _523
REMARK  200  A    between atoms: _522  and  _525
REMARK  201  A    between atoms: _525  and  _526
REMARK  202  A    between atoms: _526  and  _527
REMARK  203  A    between atoms: _527  and  _528
REMARK  204  A    between atoms: _537  and  _539
REMARK  205  A    between atoms: _539  and  _540
REMARK  206  A    between atoms: _539  and  _542
REMARK  207  A    between atoms: _542  and  _543
REMARK  208  A    between atoms: _546  and  _548
REMARK  209  A    between atoms: _548  and  _549
REMARK  210  A    between atoms: _548  and  _551
REMARK  211  A    between atoms: _551  and  _552
REMARK  212  A    between atoms: _555  and  _557
REMARK  213  A    between atoms: _557  and  _558
REMARK  214  A    between atoms: _557  and  _560
REMARK  215  A    between atoms: _560  and  _561
REMARK  216  A    between atoms: _564  and  _566
REMARK  217  A    between atoms: _566  and  _567
REMARK  218  A    between atoms: _566  and  _569
REMARK  219  A    between atoms: _569  and  _570
REMARK  220  A    between atoms: _575  and  _576
REMARK  221  A    between atoms: _578  and  _580
REMARK  222  A    between atoms: _580  and  _581
REMARK  223  A    between atoms: _580  and  _583
REMARK  224  A    between atoms: _583  and  _584
REMARK  225  A    between atoms: _586  and  _588
REMARK  226  A    between atoms: _588  and  _589
REMARK  227  A    between atoms: _588  and  _591
REMARK  228  A    between atoms: _591  and  _592
REMARK  229  A    between atoms: _597  and  _598
REMARK  230  A    between atoms: _600  and  _602
REMARK  231  A    between atoms: _602  and  _603
REMARK  232  A    between atoms: _602  and  _605
REMARK  233  A    between atoms: _605  and  _606
REMARK  234  A    between atoms: _612  and  _614
REMARK  235  A    between atoms: _614  and  _615
REMARK  236  A    between atoms: _614  and  _617
REMARK  237  A    between atoms: _620  and  _622
REMARK  238  A    between atoms: _622  and  _623
REMARK  239  A    between atoms: _622  and  _625
REMARK  240  A    between atoms: _625  and  _626
REMARK                            x       y       z     vdW  Elec       q    Type
REMARK                         _______ _______ _______ _____ _____    ______ ____
ROOT
ATOM      1  CA  GLY A   1      57.881  18.566 -15.355  0.00  0.00    +0.156 C 
ENDROOT
BRANCH   1   2
ATOM      2  N   GLY A   1      58.732  18.734 -16.517  0.00  0.00    -0.238 NA
ATOM      3  H   GLY A   1      58.808  17.970 -17.218  0.00  0.00    +0.142 HD
ENDBRANCH   1   2
BRANCH   1   4
ATOM      4  C   GLY A   1      58.698  18.405 -14.059  0.00  0.00    +0.226 C 
ATOM      5  O   GLY A   1      58.282  18.860 -12.974  0.00  0.00    -0.287 OA
ENDBRANCH   1   4
TORSDOF 2
REMARK  Name = ../refined-set-2016/4tmn/4tmn_pocket.pdb
REMARK  240 active torsions:
REMARK  status: ('A' for Active; 'I' for Inactive)
REMARK    1  A    between atoms: _1  and  _3
REMARK    2  A    between atoms: _3  and  _4
REMARK    3  A    between atoms: _3  and  _6
REMARK    4  A    between atoms: _6  and  _7
REMARK    5  A    between atoms: _12  and  _13
REMARK    6  A    between atoms: _15  and  _17
REMARK    7  A    between atoms: _17  and  _18
REMARK    8  A    between atoms: _17  and  _20
REMARK    9  A    between atoms: _20  and  _21
REMARK   10  A    between atoms: _26  and  _27
REMARK   11  A    between atoms: _29  and  _31
REMARK   12  A    between atoms: _31  and  _32
REMARK   13  A    between atoms: _31  and  _34
REMARK   14  A    between atoms: _34  and  _35
REMARK   15  A    between atoms: _40  and  _42
REMARK   16  A    between atoms: _42  and  _43
REMARK   17  A    between atoms: _42  and  _45
REMARK   18  A    between atoms: _45  and  _46
REMARK   19  A    between atoms: _51  and  _53
REMARK   20  A    between atoms: _53  and  _54
REMARK   21  A    between atoms: _57  and  _59
REMARK   22  A    between atoms: _59  and  _60
REMARK   23  A    between atoms: _59  and  _62
REMARK   24  A    between atoms: _62  and  _63
REMARK   25  A    between atoms: _69  and  _71
REMARK   26  A    between atoms: _71  and  _72
REMARK   27  A    between atoms: _71  and  _74
REMARK   28  A    between atoms: _74  and  _75
REMARK   29  A    between atoms: _85  and  _87
REMARK   30  A    between atoms: _87  and  _88
REMARK   31  A    between atoms: _87  and  _90
REMARK   32  A    between atoms: _90  and  _91
REMARK   33  A    between atoms: _96  and  _98
REMARK   34  A    between atoms: _98  and  _99
REMARK   35  A    between atoms: _103  and  _104
REMARK   36  A    between atoms: _103  and  _106
REMARK   37  A    between atoms: _106  and  _107
REMARK   38  A    between atoms: _109  and  _111
REMARK   39  A    between atoms: _111  and  _112
REMARK   40  A    between atoms: _111  and  _114
REMARK   41  A    between atoms: _114  and  _115
REMARK   42  A    between atoms: _115  and  _116
REMARK   43  A    between atoms: _119  and  _121
REMARK   44  A    between atoms: _121  and  _122
REMARK   45  A    between atoms: _121  and  _124
REMARK   46  A    between atoms: _124  and  _125
REMARK   47  A    between atoms: _125  and  _126
REMARK   48  A    between atoms: _128  and  _130
REMARK   49  A    between atoms: _130  and  _131
REMARK   50  A    between atoms: _130  and  _133
REMARK   51  A    between atoms: _136  and  _138
REMARK   52  A    between atoms: _138  and  _139
REMARK   53  A    between atoms: _138  and  _141
REMARK   54  A    between atoms: _141  and  _142
REMARK   55  A    between atoms: _147  and  _148
REMARK   56  A    between atoms: _150  and  _152
REMARK   57  A    between atoms: _152  and  _153
REMARK   58  A    between atoms: _155  and  _157
REMARK   59  A    between atoms: _157  and  _158
REMARK   60  A    between atoms: _157  and  _160
REMARK   61  A    between atoms: _160  and  _161
REMARK   62  A    between atoms: _164  and  _166
REMARK   63  A    between atoms: _166  and  _167
REMARK   64  A    between atoms: _166  and  _169
REMARK   65  A    between atoms: _169  and  _170
REMARK   66  A    between atoms: _176  and  _178
REMARK   67  A    between atoms: _178  and  _179
REMARK   68  A    between atoms: _178  and  _181
REMARK   69  A    between atoms: _181  and  _182
REMARK   70  A    between atoms: _185  and  _187
REMARK   71  A    between atoms: _187  and  _188
REMARK   72  A    between atoms: _190  and  _192
REMARK   73  A    between atoms: _192  and  _193
REMARK   74  A    between atoms: _192  and  _195
REMARK   75  A    between atoms: _195  and  _196
REMARK   76  A    between atoms: _199  and  _201
REMARK   77  A    between atoms: _201  and  _202
REMARK   78  A    between atoms: _201  and  _204
REMARK   79  A    between atoms: _207  and  _209
REMARK   80  A    between atoms: _209  and  _210
REMARK   81  A    between atoms: _209  and  _212
REMARK   82  A    between atoms: _215  and  _217
REMARK   83  A    between atoms: _217  and  _218
REMARK   84  A    between atoms: _221  and  _223
REMARK   85  A    between atoms: _234  and  _237
REMARK   86  A    between atoms: _237  and  _238
REMARK   87  A    between atoms: _238  and  _239
REMARK   88  A    between atoms: _244  and  _247
REMARK   89  A    between atoms: _247  and  _248
REMARK   90  A    between atoms: _253  and  _256
REMARK   91  A    between atoms: _256  and  _257
REMARK   92  A    between atoms: _262  and  _263
REMARK   93  A    between atoms: _271  and  _273
REMARK   94  A    between atoms: _273  and  _274
REMARK   95  A    between atoms: _277  and  _279
REMARK   96  A    between atoms: _279  and  _280
REMARK   97  A    between atoms: _279  and  _282
REMARK   98  A    between atoms: _282  and  _283
REMARK   99  A    between atoms: _286  and  _288
REMARK  100  A    between atoms: _288  and  _289
REMARK  101  A    between atoms: _288  and  _291
REMARK  102  A    between atoms: _291  and  _292
REMARK  103  A    between atoms: _295  and  _297
REMARK  104  A    between atoms: _297  and  _298
REMARK  105  A    between atoms: _300  and  _302
REMARK  106  A    between atoms: _302  and  _303
REMARK  107  A    between atoms: _302  and  _305
REMARK  108  A    between atoms: _305  and  _306
REMARK  109  A    between atoms: _309  and  _311
REMARK  110  A    between atoms: _311  and  _312
REMARK  111  A    between atoms: _311  and  _314
REMARK  112  A    between atoms: _314  and  _315
REMARK  113  A    between atoms: _318  and  _320
REMARK  114  A    between atoms: _320  and  _321
REMARK  115  A    between atoms: _320  and  _323
REMARK  116  A    between atoms: _323  and  _324
REMARK  117  A    between atoms: _329  and  _330
REMARK  118  A    between atoms: _332  and  _334
REMARK  119  A    between atoms: _334  and  _335
REMARK  120  A    between atoms: _334  and  _337
REMARK  121  A    between atoms: _337  and  _338
REMARK  122  A    between atoms: _338  and  _339
REMARK  123  A    between atoms: _344  and  _346
REMARK  124  A    between atoms: _346  and  _347
REMARK  125  A    between atoms: _349  and  _351
REMARK  126  A    between atoms: _351  and  _352
REMARK  127  A    between atoms: _351  and  _354
REMARK  128  A    between atoms: _354  and  _355
REMARK  129  A    between atoms: _360  and  _362
REMARK  130  A    between atoms: _362  and  _363
REMARK  131  A    between atoms: _362  and  _365
REMARK  132  A    between atoms: _365  and  _366
REMARK  133  A    between atoms: _366  and  _367
REMARK  134  A    between atoms: _367  and  _368
REMARK  135  A    between atoms: _368  and  ZN_631
REMARK  136  A    between atoms: _370  and  _372
REMARK  137  A    between atoms: _372  and  _373
REMARK  138  A    between atoms: _372  and  _375
REMARK  139  A    between atoms: _375  and  _376
REMARK  140  A    between atoms: _378  and  _380
REMARK  141  A    between atoms: _380  and  _381
REMARK  142  A    between atoms: _380  and  _383
REMARK  143  A    between atoms: _383  and  _384
REMARK  144  A    between atoms: _387  and  _389
REMARK  145  A    between atoms: _389  and  _390
REMARK  146  A    between atoms: _392  and  _394
REMARK  147  A    between atoms: _394  and  _395
REMARK  148  A    between atoms: _394  and  _397
REMARK  149  A    between atoms: _397  and  _398
REMARK  150  A    between atoms: _401  and  _403
REMARK  151  A    between atoms: _403  and  _404
REMARK  152  A    between atoms: _406  and  _408
REMARK  153  A    between atoms: _408  and  _409
REMARK  154  A    between atoms: _408  and  _411
REMARK  155  A    between atoms: _411  and  _412
REMARK  156  A    between atoms: _412  and  _413
REMARK  157  A    between atoms: _416  and  _418
REMARK  158  A    between atoms: _418  and  _419
REMARK  159  A    between atoms: _418  and  _421
REMARK  160  A    between atoms: _424  and  _426
REMARK  161  A    between atoms: _426  and  _427
REMARK  162  A    between atoms: _426  and  _429
REMARK  163  A    between atoms: _429  and  _430
REMARK  164  A    between atoms: _435  and  _436
REMARK  165  A    between atoms: _438  and  _440
REMARK  166  A    between atoms: _440  and  _441
REMARK  167  A    between atoms: _440  and  _443
REMARK  168  A    between atoms: _443  and  _444
REMARK  169  A    between atoms: _447  and  _449
REMARK  170  A    between atoms: _449  and  _450
REMARK  171  A    between atoms: _449  and  _452
REMARK  172  A    between atoms: _452  and  _453
REMARK  173  A    between atoms: _453  and  _454
REMARK  174  A    between atoms: _454  and  _455
REMARK  175  A    between atoms: _464  and  _466
REMARK  176  A    between atoms: _466  and  _467
REMARK  177  A    between atoms: _466  and  _469
REMARK  178  A    between atoms: _469  and  _470
REMARK  179  A    between atoms: _473  and  _475
REMARK  180  A    between atoms: _475  and  _476
REMARK  181  A    between atoms: _475  and  _478
REMARK  182  A    between atoms: _478  and  _479
REMARK  183  A    between atoms: _484  and  _486
REMARK  184  A    between atoms: _486  and  _487
REMARK  185  A    between atoms: _486  and  _489
REMARK  186  A    between atoms: _492  and  _494
REMARK  187  A    between atoms: _494  and  _495
REMARK  188  A    between atoms: _494  and  _497
REMARK  189  A    between atoms: _497  and  _498
REMARK  190  A    between atoms: _503  and  _505
REMARK  191  A    between atoms: _505  and  _506
REMARK  192  A    between atoms: _505  and  _508
REMARK  193  A    between atoms: _508  and  _509
REMARK  194  A    between atoms: _512  and  _514
REMARK  195  A    between atoms: _514  and  _515
REMARK  196  A    between atoms: _514  and  _517
REMARK  197  A    between atoms: _517  and  _518
REMARK  198  A    between atoms: _520  and  _522
REMARK  199  A    between atoms: _522  and  _523
REMARK  200  A    between atoms: _522  and  _525
REMARK  201  A    between atoms: _525  and  _526
REMARK  202  A    between atoms: _526  and  _527
REMARK  203  A    between atoms: _527  and  _528
REMARK  204  A    between atoms: _537  and  _539
REMARK  205  A    between atoms: _539  and  _540
REMARK  206  A    between atoms: _539  and  _542
REMARK  207  A    between atoms: _542  and  _543
REMARK  208  A    between atoms: _546  and  _548
REMARK  209  A    between atoms: _548  and  _549
REMARK  210  A    between atoms: _548  and  _551
REMARK  211  A    between atoms: _551  and  _552
REMARK  212  A    between atoms: _555  and  _557
REMARK  213  A    between atoms: _557  and  _558
REMARK  214  A    between atoms: _557  and  _560
REMARK  215  A    between atoms: _560  and  _561
REMARK  216  A    between atoms: _564  and  _566
REMARK  217  A    between atoms: _566  and  _567
REMARK  218  A    between atoms: _566  and  _569
REMARK  219  A    between atoms: _569  and  _570
REMARK  220  A    between atoms: _575  and  _576
REMARK  221  A    between atoms: _578  and  _580
REMARK  222  A    between atoms: _580  and  _581
REMARK  223  A    between atoms: _580  and  _583
REMARK  224  A    between atoms: _583  and  _584
REMARK  225  A    between atoms: _586  and  _588
REMARK  226  A    between atoms: _588  and  _589
REMARK  227  A    between atoms: _588  and  _591
REMARK  228  A    between atoms: _591  and  _592
REMARK  229  A    between atoms: _597  and  _598
REMARK  230  A    between atoms: _600  and  _602
REMARK  231  A    between atoms: _602  and  _603
REMARK  232  A    between atoms: _602  and  _605
REMARK  233  A    between atoms: _605  and  _606
REMARK  234  A    between atoms: _612  and  _614
REMARK  235  A    between atoms: _614  and  _615
REMARK  236  A    between atoms: _614  and  _617
REMARK  237  A    between atoms: _620  and  _622
REMARK  238  A    between atoms: _622  and  _623
REMARK  239  A    between atoms: _622  and  _625
REMARK  240  A    between atoms: _625  and  _626
REMARK                            x       y       z     vdW  Elec       q    Type
REMARK                         _______ _______ _______ _____ _____    ______ ____
ROOT
ATOM      1  C   SER A   1      59.262  24.312  -5.141  0.00  0.00    +0.241 C 
ATOM      2  O   SER A   1      59.031  24.901  -4.067  0.00  0.00    -0.274 OA
ATOM      3  N   ASP A   2      60.106  23.239  -5.146  0.00  0.00    -0.298 N 
ATOM      4  H   ASP A   2      60.268  22.717  -6.031  0.00  0.00    +0.150 HD
ENDROOT
BRANCH   1   5
ATOM      5  CA  SER A   1      58.601  24.701  -6.481  0.00  0.00    +0.174 C 
BRANCH   5   6
ATOM      6  N   SER A   1      59.545  24.576  -7.599  0.00  0.00    -0.236 NA
ATOM      7  H   SER A   1      59.349  23.890  -8.356  0.00  0.00    +0.142 HD
ENDBRANCH   5   6
BRANCH   5   8
ATOM      8  CB  SER A   1      57.275  23.920  -6.713  0.00  0.00    +0.163 C 
BRANCH   8   9
ATOM      9  OG  SER A   1      56.400  24.757  -7.459  0.00  0.00    -0.380 OA
ATOM     10  H   SER A   1      56.821  24.984  -8.326  0.00  0.00    +0.211 HD
ENDBRANCH   8   9
ENDBRANCH   5   8
ENDBRANCH   1   5
BRANCH   3  11
ATOM     11  CA  ASP A   2      60.783  22.817  -3.927  0.00  0.00    +0.148 C 
BRANCH  11  12
ATOM     12  C   ASP A   2      61.849  23.872  -3.510  0.00  0.00    +0.227 C 
ATOM     13  O   ASP A   2      61.991  24.216  -2.302  0.00  0.00    -0.286 OA
ENDBRANCH  11  12
BRANCH  11  14
ATOM     14  CB  ASP A   2      61.418  21.413  -4.145  0.00  0.00    +0.142 C 
BRANCH  14  15
ATOM     15  CG  ASP A   2      60.513  20.253  -4.057  0.00  0.00    +0.367 C 
ATOM     16  OD2 ASP A   2      59.298  20.501  -3.543  0.00  0.00    -0.246 OA
ATOM     17  OD1 ASP A   2      60.898  19.185  -4.484  0.00  0.00    -0.246 OA
ENDBRANCH  14  15
ENDBRANCH  11  14
ENDBRANCH   3  11
TORSDOF 8
REMARK  Name = ../refined-set-2016/4tmn/4tmn_pocket.pdb
REMARK  240 active torsions:
REMARK  status: ('A' for Active; 'I' for Inactive)
REMARK    1  A    between atoms: _1  and  _3
REMARK    2  A    between atoms: _3  and  _4
REMARK    3  A    between atoms: _3  and  _6
REMARK    4  A    between atoms: _6  and  _7
REMARK    5  A    between atoms: _12  and  _13
REMARK    6  A    between atoms: _15  and  _17
REMARK    7  A    between atoms: _17  and  _18
REMARK    8  A    between atoms: _17  and  _20
REMARK    9  A    between atoms: _20  and  _21
REMARK   10  A    between atoms: _26  and  _27
REMARK   11  A    between atoms: _29  and  _31
REMARK   12  A    between atoms: _31  and  _32
REMARK   13  A    between atoms: _31  and  _34
REMARK   14  A    between atoms: _34  and  _35
REMARK   15  A    between atoms: _40  and  _42
REMARK   16  A    between atoms: _42  and  _43
REMARK   17  A    between atoms: _42  and  _45
REMARK   18  A    between atoms: _45  and  _46
REMARK   19  A    between atoms: _51  and  _53
REMARK   20  A    between atoms: _53  and  _54
REMARK   21  A    between atoms: _57  and  _59
REMARK   22  A    between atoms: _59  and  _60
REMARK   23  A    between atoms: _59  and  _62
REMARK   24  A    between atoms: _62  and  _63
REMARK   25  A    between atoms: _69  and  _71
REMARK   26  A    between atoms: _71  and  _72
REMARK   27  A    between atoms: _71  and  _74
REMARK   28  A    between atoms: _74  and  _75
REMARK   29  A    between atoms: _85  and  _87
REMARK   30  A    between atoms: _87  and  _88
REMARK   31  A    between atoms: _87  and  _90
REMARK   32  A    between atoms: _90  and  _91
REMARK   33  A    between atoms: _96  and  _98
REMARK   34  A    between atoms: _98  and  _99
REMARK   35  A    between atoms: _103  and  _104
REMARK   36  A    between atoms: _103  and  _106
REMARK   37  A    between atoms: _106  and  _107
REMARK   38  A    between atoms: _109  and  _111
REMARK   39  A    between atoms: _111  and  _112
REMARK   40  A    between atoms: _111  and  _114
REMARK   41  A    between atoms: _114  and  _115
REMARK   42  A    between atoms: _115  and  _116
REMARK   43  A    between atoms: _119  and  _121
REMARK   44  A    between atoms: _121  and  _122
REMARK   45  A    between atoms: _121  and  _124
REMARK   46  A    between atoms: _124  and  _125
REMARK   47  A    between atoms: _125  and  _126
REMARK   48  A    between atoms: _128  and  _130
REMARK   49  A    between atoms: _130  and  _131
REMARK   50  A    between atoms: _130  and  _133
REMARK   51  A    between atoms: _136  and  _138
REMARK   52  A    between atoms: _138  and  _139
REMARK   53  A    between atoms: _138  and  _141
REMARK   54  A    between atoms: _141  and  _142
REMARK   55  A    between atoms: _147  and  _148
REMARK   56  A    between atoms: _150  and  _152
REMARK   57  A    between atoms: _152  and  _153
REMARK   58  A    between atoms: _155  and  _157
REMARK   59  A    between atoms: _157  and  _158
REMARK   60  A    between atoms: _157  and  _160
REMARK   61  A    between atoms: _160  and  _161
REMARK   62  A    between atoms: _164  and  _166
REMARK   63  A    between atoms: _166  and  _167
REMARK   64  A    between atoms: _166  and  _169
REMARK   65  A    between atoms: _169  and  _170
REMARK   66  A    between atoms: _176  and  _178
REMARK   67  A    between atoms: _178  and  _179
REMARK   68  A    between atoms: _178  and  _181
REMARK   69  A    between atoms: _181  and  _182
REMARK   70  A    between atoms: _185  and  _187
REMARK   71  A    between atoms: _187  and  _188
REMARK   72  A    between atoms: _190  and  _192
REMARK   73  A    between atoms: _192  and  _193
REMARK   74  A    between atoms: _192  and  _195
REMARK   75  A    between atoms: _195  and  _196
REMARK   76  A    between atoms: _199  and  _201
REMARK   77  A    between atoms: _201  and  _202
REMARK   78  A    between atoms: _201  and  _204
REMARK   79  A    between atoms: _207  and  _209
REMARK   80  A    between atoms: _209  and  _210
REMARK   81  A    between atoms: _209  and  _212
REMARK   82  A    between atoms: _215  and  _217
REMARK   83  A    between atoms: _217  and  _218
REMARK   84  A    between atoms: _221  and  _223
REMARK   85  A    between atoms: _234  and  _237
REMARK   86  A    between atoms: _237  and  _238
REMARK   87  A    between atoms: _238  and  _239
REMARK   88  A    between atoms: _244  and  _247
REMARK   89  A    between atoms: _247  and  _248
REMARK   90  A    between atoms: _253  and  _256
REMARK   91  A    between atoms: _256  and  _257
REMARK   92  A    between atoms: _262  and  _263
REMARK   93  A    between atoms: _271  and  _273
REMARK   94  A    between atoms: _273  and  _274
REMARK   95  A    between atoms: _277  and  _279
REMARK   96  A    between atoms: _279  and  _280
REMARK   97  A    between atoms: _279  and  _282
REMARK   98  A    between atoms: _282  and  _283
REMARK   99  A    between atoms: _286  and  _288
REMARK  100  A    between atoms: _288  and  _289
REMARK  101  A    between atoms: _288  and  _291
REMARK  102  A    between atoms: _291  and  _292
REMARK  103  A    between atoms: _295  and  _297
REMARK  104  A    between atoms: _297  and  _298
REMARK  105  A    between atoms: _300  and  _302
REMARK  106  A    between atoms: _302  and  _303
REMARK  107  A    between atoms: _302  and  _305
REMARK  108  A    between atoms: _305  and  _306
REMARK  109  A    between atoms: _309  and  _311
REMARK  110  A    between atoms: _311  and  _312
REMARK  111  A    between atoms: _311  and  _314
REMARK  112  A    between atoms: _314  and  _315
REMARK  113  A    between atoms: _318  and  _320
REMARK  114  A    between atoms: _320  and  _321
REMARK  115  A    between atoms: _320  and  _323
REMARK  116  A    between atoms: _323  and  _324
REMARK  117  A    between atoms: _329  and  _330
REMARK  118  A    between atoms: _332  and  _334
REMARK  119  A    between atoms: _334  and  _335
REMARK  120  A    between atoms: _334  and  _337
REMARK  121  A    between atoms: _337  and  _338
REMARK  122  A    between atoms: _338  and  _339
REMARK  123  A    between atoms: _344  and  _346
REMARK  124  A    between atoms: _346  and  _347
REMARK  125  A    between atoms: _349  and  _351
REMARK  126  A    between atoms: _351  and  _352
REMARK  127  A    between atoms: _351  and  _354
REMARK  128  A    between atoms: _354  and  _355
REMARK  129  A    between atoms: _360  and  _362
REMARK  130  A    between atoms: _362  and  _363
REMARK  131  A    between atoms: _362  and  _365
REMARK  132  A    between atoms: _365  and  _366
REMARK  133  A    between atoms: _366  and  _367
REMARK  134  A    between atoms: _367  and  _368
REMARK  135  A    between atoms: _368  and  ZN_631
REMARK  136  A    between atoms: _370  and  _372
REMARK  137  A    between atoms: _372  and  _373
REMARK  138  A    between atoms: _372  and  _375
REMARK  139  A    between atoms: _375  and  _376
REMARK  140  A    between atoms: _378  and  _380
REMARK  141  A    between atoms: _380  and  _381
REMARK  142  A    between atoms: _380  and  _383
REMARK  143  A    between atoms: _383  and  _384
REMARK  144  A    between atoms: _387  and  _389
REMARK  145  A    between atoms: _389  and  _390
REMARK  146  A    between atoms: _392  and  _394
REMARK  147  A    between atoms: _394  and  _395
REMARK  148  A    between atoms: _394  and  _397
REMARK  149  A    between atoms: _397  and  _398
REMARK  150  A    between atoms: _401  and  _403
REMARK  151  A    between atoms: _403  and  _404
REMARK  152  A    between atoms: _406  and  _408
REMARK  153  A    between atoms: _408  and  _409
REMARK  154  A    between atoms: _408  and  _411
REMARK  155  A    between atoms: _411  and  _412
REMARK  156  A    between atoms: _412  and  _413
REMARK  157  A    between atoms: _416  and  _418
REMARK  158  A    between atoms: _418  and  _419
REMARK  159  A    between atoms: _418  and  _421
REMARK  160  A    between atoms: _424  and  _426
REMARK  161  A    between atoms: _426  and  _427
REMARK  162  A    between atoms: _426  and  _429
REMARK  163  A    between atoms: _429  and  _430
REMARK  164  A    between atoms: _435  and  _436
REMARK  165  A    between atoms: _438  and  _440
REMARK  166  A    between atoms: _440  and  _441
REMARK  167  A    between atoms: _440  and  _443
REMARK  168  A    between atoms: _443  and  _444
REMARK  169  A    between atoms: _447  and  _449
REMARK  170  A    between atoms: _449  and  _450
REMARK  171  A    between atoms: _449  and  _452
REMARK  172  A    between atoms: _452  and  _453
REMARK  173  A    between atoms: _453  and  _454
REMARK  174  A    between atoms: _454  and  _455
REMARK  175  A    between atoms: _464  and  _466
REMARK  176  A    between atoms: _466  and  _467
REMARK  177  A    between atoms: _466  and  _469
REMARK  178  A    between atoms: _469  and  _470
REMARK  179  A    between atoms: _473  and  _475
REMARK  180  A    between atoms: _475  and  _476
REMARK  181  A    between atoms: _475  and  _478
REMARK  182  A    between atoms: _478  and  _479
REMARK  183  A    between atoms: _484  and  _486
REMARK  184  A    between atoms: _486  and  _487
REMARK  185  A    between atoms: _486  and  _489
REMARK  186  A    between atoms: _492  and  _494
REMARK  187  A    between atoms: _494  and  _495
REMARK  188  A    between atoms: _494  and  _497
REMARK  189  A    between atoms: _497  and  _498
REMARK  190  A    between atoms: _503  and  _505
REMARK  191  A    between atoms: _505  and  _506
REMARK  192  A    between atoms: _505  and  _508
REMARK  193  A    between atoms: _508  and  _509
REMARK  194  A    between atoms: _512  and  _514
REMARK  195  A    between atoms: _514  and  _515
REMARK  196  A    between atoms: _514  and  _517
REMARK  197  A    between atoms: _517  and  _518
REMARK  198  A    between atoms: _520  and  _522
REMARK  199  A    between atoms: _522  and  _523
REMARK  200  A    between atoms: _522  and  _525
REMARK  201  A    between atoms: _525  and  _526
REMARK  202  A    between atoms: _526  and  _527
REMARK  203  A    between atoms: _527  and  _528
REMARK  204  A    between atoms: _537  and  _539
REMARK  205  A    between atoms: _539  and  _540
REMARK  206  A    between atoms: _539  and  _542
REMARK  207  A    between atoms: _542  and  _543
REMARK  208  A    between atoms: _546  and  _548
REMARK  209  A    between atoms: _548  and  _549
REMARK  210  A    between atoms: _548  and  _551
REMARK  211  A    between atoms: _551  and  _552
REMARK  212  A    between atoms: _555  and  _557
REMARK  213  A    between atoms: _557  and  _558
REMARK  214  A    between atoms: _557  and  _560
REMARK  215  A    between atoms: _560  and  _561
REMARK  216  A    between atoms: _564  and  _566
REMARK  217  A    between atoms: _566  and  _567
REMARK  218  A    between atoms: _566  and  _569
REMARK  219  A    between atoms: _569  and  _570
REMARK  220  A    between atoms: _575  and  _576
REMARK  221  A    between atoms: _578  and  _580
REMARK  222  A    between atoms: _580  and  _581
REMARK  223  A    between atoms: _580  and  _583
REMARK  224  A    between atoms: _583  and  _584
REMARK  225  A    between atoms: _586  and  _588
REMARK  226  A    between atoms: _588  and  _589
REMARK  227  A    between atoms: _588  and  _591
REMARK  228  A    between atoms: _591  and  _592
REMARK  229  A    between atoms: _597  and  _598
REMARK  230  A    between atoms: _600  and  _602
REMARK  231  A    between atoms: _602  and  _603
REMARK  232  A    between atoms: _602  and  _605
REMARK  233  A    between atoms: _605  and  _606
REMARK  234  A    between atoms: _612  and  _614
REMARK  235  A    between atoms: _614  and  _615
REMARK  236  A    between atoms: _614  and  _617
REMARK  237  A    between atoms: _620  and  _622
REMARK  238  A    between atoms: _622  and  _623
REMARK  239  A    between atoms: _622  and  _625
REMARK  240  A    between atoms: _625  and  _626
REMARK                            x       y       z     vdW  Elec       q    Type
REMARK                         _______ _______ _______ _____ _____    ______ ____
ROOT
ATOM      1  CA  GLY A   1      59.317  26.724  -1.064  0.00  0.00    +0.156 C 
ENDROOT
BRANCH   1   2
ATOM      2  N   GLY A   1      59.977  26.911  -2.341  0.00  0.00    -0.238 NA
ATOM      3  H   GLY A   1      59.985  26.164  -3.065  0.00  0.00    +0.142 HD
ENDBRANCH   1   2
BRANCH   1   4
ATOM      4  C   GLY A   1      60.313  26.743   0.069  0.00  0.00    +0.226 C 
ATOM      5  O   GLY A   1      59.997  27.187   1.157  0.00  0.00    -0.287 OA
ENDBRANCH   1   4
TORSDOF 2
REMARK  Name = ../refined-set-2016/4tmn/4tmn_pocket.pdb
REMARK  240 active torsions:
REMARK  status: ('A' for Active; 'I' for Inactive)
REMARK    1  A    between atoms: _1  and  _3
REMARK    2  A    between atoms: _3  and  _4
REMARK    3  A    between atoms: _3  and  _6
REMARK    4  A    between atoms: _6  and  _7
REMARK    5  A    between atoms: _12  and  _13
REMARK    6  A    between atoms: _15  and  _17
REMARK    7  A    between atoms: _17  and  _18
REMARK    8  A    between atoms: _17  and  _20
REMARK    9  A    between atoms: _20  and  _21
REMARK   10  A    between atoms: _26  and  _27
REMARK   11  A    between atoms: _29  and  _31
REMARK   12  A    between atoms: _31  and  _32
REMARK   13  A    between atoms: _31  and  _34
REMARK   14  A    between atoms: _34  and  _35
REMARK   15  A    between atoms: _40  and  _42
REMARK   16  A    between atoms: _42  and  _43
REMARK   17  A    between atoms: _42  and  _45
REMARK   18  A    between atoms: _45  and  _46
REMARK   19  A    between atoms: _51  and  _53
REMARK   20  A    between atoms: _53  and  _54
REMARK   21  A    between atoms: _57  and  _59
REMARK   22  A    between atoms: _59  and  _60
REMARK   23  A    between atoms: _59  and  _62
REMARK   24  A    between atoms: _62  and  _63
REMARK   25  A    between atoms: _69  and  _71
REMARK   26  A    between atoms: _71  and  _72
REMARK   27  A    between atoms: _71  and  _74
REMARK   28  A    between atoms: _74  and  _75
REMARK   29  A    between atoms: _85  and  _87
REMARK   30  A    between atoms: _87  and  _88
REMARK   31  A    between atoms: _87  and  _90
REMARK   32  A    between atoms: _90  and  _91
REMARK   33  A    between atoms: _96  and  _98
REMARK   34  A    between atoms: _98  and  _99
REMARK   35  A    between atoms: _103  and  _104
REMARK   36  A    between atoms: _103  and  _106
REMARK   37  A    between atoms: _106  and  _107
REMARK   38  A    between atoms: _109  and  _111
REMARK   39  A    between atoms: _111  and  _112
REMARK   40  A    between atoms: _111  and  _114
REMARK   41  A    between atoms: _114  and  _115
REMARK   42  A    between atoms: _115  and  _116
REMARK   43  A    between atoms: _119  and  _121
REMARK   44  A    between atoms: _121  and  _122
REMARK   45  A    between atoms: _121  and  _124
REMARK   46  A    between atoms: _124  and  _125
REMARK   47  A    between atoms: _125  and  _126
REMARK   48  A    between atoms: _128  and  _130
REMARK   49  A    between atoms: _130  and  _131
REMARK   50  A    between atoms: _130  and  _133
REMARK   51  A    between atoms: _136  and  _138
REMARK   52  A    between atoms: _138  and  _139
REMARK   53  A    between atoms: _138  and  _141
REMARK   54  A    between atoms: _141  and  _142
REMARK   55  A    between atoms: _147  and  _148
REMARK   56  A    between atoms: _150  and  _152
REMARK   57  A    between atoms: _152  and  _153
REMARK   58  A    between atoms: _155  and  _157
REMARK   59  A    between atoms: _157  and  _158
REMARK   60  A    between atoms: _157  and  _160
REMARK   61  A    between atoms: _160  and  _161
REMARK   62  A    between atoms: _164  and  _166
REMARK   63  A    between atoms: _166  and  _167
REMARK   64  A    between atoms: _166  and  _169
REMARK   65  A    between atoms: _169  and  _170
REMARK   66  A    between atoms: _176  and  _178
REMARK   67  A    between atoms: _178  and  _179
REMARK   68  A    between atoms: _178  and  _181
REMARK   69  A    between atoms: _181  and  _182
REMARK   70  A    between atoms: _185  and  _187
REMARK   71  A    between atoms: _187  and  _188
REMARK   72  A    between atoms: _190  and  _192
REMARK   73  A    between atoms: _192  and  _193
REMARK   74  A    between atoms: _192  and  _195
REMARK   75  A    between atoms: _195  and  _196
REMARK   76  A    between atoms: _199  and  _201
REMARK   77  A    between atoms: _201  and  _202
REMARK   78  A    between atoms: _201  and  _204
REMARK   79  A    between atoms: _207  and  _209
REMARK   80  A    between atoms: _209  and  _210
REMARK   81  A    between atoms: _209  and  _212
REMARK   82  A    between atoms: _215  and  _217
REMARK   83  A    between atoms: _217  and  _218
REMARK   84  A    between atoms: _221  and  _223
REMARK   85  A    between atoms: _234  and  _237
REMARK   86  A    between atoms: _237  and  _238
REMARK   87  A    between atoms: _238  and  _239
REMARK   88  A    between atoms: _244  and  _247
REMARK   89  A    between atoms: _247  and  _248
REMARK   90  A    between atoms: _253  and  _256
REMARK   91  A    between atoms: _256  and  _257
REMARK   92  A    between atoms: _262  and  _263
REMARK   93  A    between atoms: _271  and  _273
REMARK   94  A    between atoms: _273  and  _274
REMARK   95  A    between atoms: _277  and  _279
REMARK   96  A    between atoms: _279  and  _280
REMARK   97  A    between atoms: _279  and  _282
REMARK   98  A    between atoms: _282  and  _283
REMARK   99  A    between atoms: _286  and  _288
REMARK  100  A    between atoms: _288  and  _289
REMARK  101  A    between atoms: _288  and  _291
REMARK  102  A    between atoms: _291  and  _292
REMARK  103  A    between atoms: _295  and  _297
REMARK  104  A    between atoms: _297  and  _298
REMARK  105  A    between atoms: _300  and  _302
REMARK  106  A    between atoms: _302  and  _303
REMARK  107  A    between atoms: _302  and  _305
REMARK  108  A    between atoms: _305  and  _306
REMARK  109  A    between atoms: _309  and  _311
REMARK  110  A    between atoms: _311  and  _312
REMARK  111  A    between atoms: _311  and  _314
REMARK  112  A    between atoms: _314  and  _315
REMARK  113  A    between atoms: _318  and  _320
REMARK  114  A    between atoms: _320  and  _321
REMARK  115  A    between atoms: _320  and  _323
REMARK  116  A    between atoms: _323  and  _324
REMARK  117  A    between atoms: _329  and  _330
REMARK  118  A    between atoms: _332  and  _334
REMARK  119  A    between atoms: _334  and  _335
REMARK  120  A    between atoms: _334  and  _337
REMARK  121  A    between atoms: _337  and  _338
REMARK  122  A    between atoms: _338  and  _339
REMARK  123  A    between atoms: _344  and  _346
REMARK  124  A    between atoms: _346  and  _347
REMARK  125  A    between atoms: _349  and  _351
REMARK  126  A    between atoms: _351  and  _352
REMARK  127  A    between atoms: _351  and  _354
REMARK  128  A    between atoms: _354  and  _355
REMARK  129  A    between atoms: _360  and  _362
REMARK  130  A    between atoms: _362  and  _363
REMARK  131  A    between atoms: _362  and  _365
REMARK  132  A    between atoms: _365  and  _366
REMARK  133  A    between atoms: _366  and  _367
REMARK  134  A    between atoms: _367  and  _368
REMARK  135  A    between atoms: _368  and  ZN_631
REMARK  136  A    between atoms: _370  and  _372
REMARK  137  A    between atoms: _372  and  _373
REMARK  138  A    between atoms: _372  and  _375
REMARK  139  A    between atoms: _375  and  _376
REMARK  140  A    between atoms: _378  and  _380
REMARK  141  A    between atoms: _380  and  _381
REMARK  142  A    between atoms: _380  and  _383
REMARK  143  A    between atoms: _383  and  _384
REMARK  144  A    between atoms: _387  and  _389
REMARK  145  A    between atoms: _389  and  _390
REMARK  146  A    between atoms: _392  and  _394
REMARK  147  A    between atoms: _394  and  _395
REMARK  148  A    between atoms: _394  and  _397
REMARK  149  A    between atoms: _397  and  _398
REMARK  150  A    between atoms: _401  and  _403
REMARK  151  A    between atoms: _403  and  _404
REMARK  152  A    between atoms: _406  and  _408
REMARK  153  A    between atoms: _408  and  _409
REMARK  154  A    between atoms: _408  and  _411
REMARK  155  A    between atoms: _411  and  _412
REMARK  156  A    between atoms: _412  and  _413
REMARK  157  A    between atoms: _416  and  _418
REMARK  158  A    between atoms: _418  and  _419
REMARK  159  A    between atoms: _418  and  _421
REMARK  160  A    between atoms: _424  and  _426
REMARK  161  A    between atoms: _426  and  _427
REMARK  162  A    between atoms: _426  and  _429
REMARK  163  A    between atoms: _429  and  _430
REMARK  164  A    between atoms: _435  and  _436
REMARK  165  A    between atoms: _438  and  _440
REMARK  166  A    between atoms: _440  and  _441
REMARK  167  A    between atoms: _440  and  _443
REMARK  168  A    between atoms: _443  and  _444
REMARK  169  A    between atoms: _447  and  _449
REMARK  170  A    between atoms: _449  and  _450
REMARK  171  A    between atoms: _449  and  _452
REMARK  172  A    between atoms: _452  and  _453
REMARK  173  A    between atoms: _453  and  _454
REMARK  174  A    between atoms: _454  and  _455
REMARK  175  A    between atoms: _464  and  _466
REMARK  176  A    between atoms: _466  and  _467
REMARK  177  A    between atoms: _466  and  _469
REMARK  178  A    between atoms: _469  and  _470
REMARK  179  A    between atoms: _473  and  _475
REMARK  180  A    between atoms: _475  and  _476
REMARK  181  A    between atoms: _475  and  _478
REMARK  182  A    between atoms: _478  and  _479
REMARK  183  A    between atoms: _484  and  _486
REMARK  184  A    between atoms: _486  and  _487
REMARK  185  A    between atoms: _486  and  _489
REMARK  186  A    between atoms: _492  and  _494
REMARK  187  A    between atoms: _494  and  _495
REMARK  188  A    between atoms: _494  and  _497
REMARK  189  A    between atoms: _497  and  _498
REMARK  190  A    between atoms: _503  and  _505
REMARK  191  A    between atoms: _505  and  _506
REMARK  192  A    between atoms: _505  and  _508
REMARK  193  A    between atoms: _508  and  _509
REMARK  194  A    between atoms: _512  and  _514
REMARK  195  A    between atoms: _514  and  _515
REMARK  196  A    between atoms: _514  and  _517
REMARK  197  A    between atoms: _517  and  _518
REMARK  198  A    between atoms: _520  and  _522
REMARK  199  A    between atoms: _522  and  _523
REMARK  200  A    between atoms: _522  and  _525
REMARK  201  A    between atoms: _525  and  _526
REMARK  202  A    between atoms: _526  and  _527
REMARK  203  A    between atoms: _527  and  _528
REMARK  204  A    between atoms: _537  and  _539
REMARK  205  A    between atoms: _539  and  _540
REMARK  206  A    between atoms: _539  and  _542
REMARK  207  A    between atoms: _542  and  _543
REMARK  208  A    between atoms: _546  and  _548
REMARK  209  A    between atoms: _548  and  _549
REMARK  210  A    between atoms: _548  and  _551
REMARK  211  A    between atoms: _551  and  _552
REMARK  212  A    between atoms: _555  and  _557
REMARK  213  A    between atoms: _557  and  _558
REMARK  214  A    between atoms: _557  and  _560
REMARK  215  A    between atoms: _560  and  _561
REMARK  216  A    between atoms: _564  and  _566
REMARK  217  A    between atoms: _566  and  _567
REMARK  218  A    between atoms: _566  and  _569
REMARK  219  A    between atoms: _569  and  _570
REMARK  220  A    between atoms: _575  and  _576
REMARK  221  A    between atoms: _578  and  _580
REMARK  222  A    between atoms: _580  and  _581
REMARK  223  A    between atoms: _580  and  _583
REMARK  224  A    between atoms: _583  and  _584
REMARK  225  A    between atoms: _586  and  _588
REMARK  226  A    between atoms: _588  and  _589
REMARK  227  A    between atoms: _588  and  _591
REMARK  228  A    between atoms: _591  and  _592
REMARK  229  A    between atoms: _597  and  _598
REMARK  230  A    between atoms: _600  and  _602
REMARK  231  A    between atoms: _602  and  _603
REMARK  232  A    between atoms: _602  and  _605
REMARK  233  A    between atoms: _605  and  _606
REMARK  234  A    between atoms: _612  and  _614
REMARK  235  A    between atoms: _614  and  _615
REMARK  236  A    between atoms: _614  and  _617
REMARK  237  A    between atoms: _620  and  _622
REMARK  238  A    between atoms: _622  and  _623
REMARK  239  A    between atoms: _622  and  _625
REMARK  240  A    between atoms: _625  and  _626
REMARK                            x       y       z     vdW  Elec       q    Type
REMARK                         _______ _______ _______ _____ _____    ______ ____
ROOT
ATOM      1  CA  GLY A   2      57.092  18.788   4.107  0.00  0.00    +0.176 C 
ENDROOT
BRANCH   1   3
ATOM      2  C   ILE A   1      59.169  18.526   2.833  0.00  0.00    +0.238 C 
ATOM      3  N   GLY A   2      58.270  19.361   3.484  0.00  0.00    -0.296 N 
ATOM      4  H   GLY A   2      58.440  20.386   3.524  0.00  0.00    +0.150 HD
ATOM      5  O   ILE A   1      59.041  17.275   2.828  0.00  0.00    -0.274 OA
BRANCH   2   6
ATOM      6  CA  ILE A   1      60.326  19.218   2.073  0.00  0.00    +0.145 C 
BRANCH   6   7
ATOM      7  N   ILE A   1      61.666  18.846   2.519  0.00  0.00    -0.238 NA
ATOM      8  H   ILE A   1      62.021  17.893   2.301  0.00  0.00    +0.142 HD
ENDBRANCH   6   7
BRANCH   6   9
ATOM      9  CB  ILE A   1      60.048  18.988   0.568  0.00  0.00    +0.025 C 
ATOM     10  CG2 ILE A   1      58.592  19.394   0.132  0.00  0.00    +0.002 C 
BRANCH   9  11
ATOM     11  CG1 ILE A   1      61.112  19.688  -0.246  0.00  0.00    +0.002 C 
ATOM     12  CD1 ILE A   1      61.020  21.196   0.049  0.00  0.00    +0.000 C 
ENDBRANCH   9  11
ENDBRANCH   6   9
ENDBRANCH   2   6
ENDBRANCH   1   3
BRANCH   1  13
ATOM     13  C   GLY A   2      57.262  18.233   5.492  0.00  0.00    +0.243 C 
ATOM     14  N   GLU A   3      58.422  18.434   6.088  0.00  0.00    -0.298 N 
ATOM     15  H   GLU A   3      59.146  19.001   5.601  0.00  0.00    +0.150 HD
ATOM     16  O   GLY A   2      56.330  17.662   5.993  0.00  0.00    -0.273 OA
BRANCH  14  17
ATOM     17  CA  GLU A   3      58.717  17.899   7.379  0.00  0.00    +0.137 C 
BRANCH  17  18
ATOM     18  C   GLU A   3      57.711  18.184   8.462  0.00  0.00    +0.227 C 
ATOM     19  O   GLU A   3      57.547  17.368   9.397  0.00  0.00    -0.286 OA
ENDBRANCH  17  18
BRANCH  17  20
ATOM     20  CB  GLU A   3      60.154  18.243   7.871  0.00  0.00    +0.039 C 
BRANCH  20  21
ATOM     21  CG  GLU A   3      60.394  19.726   8.199  0.00  0.00    +0.116 C 
BRANCH  21  22
ATOM     22  CD  GLU A   3      60.451  20.547   6.928  0.00  0.00    +0.365 C 
ATOM     23  OE2 GLU A   3      60.389  21.819   7.156  0.00  0.00    -0.246 OA
ATOM     24  OE1 GLU A   3      60.570  20.092   5.782  0.00  0.00    -0.246 OA
ENDBRANCH  21  22
ENDBRANCH  20  21
ENDBRANCH  17  20
ENDBRANCH  14  17
ENDBRANCH   1  13
TORSDOF 11
REMARK  Name = ../refined-set-2016/4tmn/4tmn_pocket.pdb
REMARK  240 active torsions:
REMARK  status: ('A' for Active; 'I' for Inactive)
REMARK    1  A    between atoms: _1  and  _3
REMARK    2  A    between atoms: _3  and  _4
REMARK    3  A    between atoms: _3  and  _6
REMARK    4  A    between atoms: _6  and  _7
REMARK    5  A    between atoms: _12  and  _13
REMARK    6  A    between atoms: _15  and  _17
REMARK    7  A    between atoms: _17  and  _18
REMARK    8  A    between atoms: _17  and  _20
REMARK    9  A    between atoms: _20  and  _21
REMARK   10  A    between atoms: _26  and  _27
REMARK   11  A    between atoms: _29  and  _31
REMARK   12  A    between atoms: _31  and  _32
REMARK   13  A    between atoms: _31  and  _34
REMARK   14  A    between atoms: _34  and  _35
REMARK   15  A    between atoms: _40  and  _42
REMARK   16  A    between atoms: _42  and  _43
REMARK   17  A    between atoms: _42  and  _45
REMARK   18  A    between atoms: _45  and  _46
REMARK   19  A    between atoms: _51  and  _53
REMARK   20  A    between atoms: _53  and  _54
REMARK   21  A    between atoms: _57  and  _59
REMARK   22  A    between atoms: _59  and  _60
REMARK   23  A    between atoms: _59  and  _62
REMARK   24  A    between atoms: _62  and  _63
REMARK   25  A    between atoms: _69  and  _71
REMARK   26  A    between atoms: _71  and  _72
REMARK   27  A    between atoms: _71  and  _74
REMARK   28  A    between atoms: _74  and  _75
REMARK   29  A    between atoms: _85  and  _87
REMARK   30  A    between atoms: _87  and  _88
REMARK   31  A    between atoms: _87  and  _90
REMARK   32  A    between atoms: _90  and  _91
REMARK   33  A    between atoms: _96  and  _98
REMARK   34  A    between atoms: _98  and  _99
REMARK   35  A    between atoms: _103  and  _104
REMARK   36  A    between atoms: _103  and  _106
REMARK   37  A    between atoms: _106  and  _107
REMARK   38  A    between atoms: _109  and  _111
REMARK   39  A    between atoms: _111  and  _112
REMARK   40  A    between atoms: _111  and  _114
REMARK   41  A    between atoms: _114  and  _115
REMARK   42  A    between atoms: _115  and  _116
REMARK   43  A    between atoms: _119  and  _121
REMARK   44  A    between atoms: _121  and  _122
REMARK   45  A    between atoms: _121  and  _124
REMARK   46  A    between atoms: _124  and  _125
REMARK   47  A    between atoms: _125  and  _126
REMARK   48  A    between atoms: _128  and  _130
REMARK   49  A    between atoms: _130  and  _131
REMARK   50  A    between atoms: _130  and  _133
REMARK   51  A    between atoms: _136  and  _138
REMARK   52  A    between atoms: _138  and  _139
REMARK   53  A    between atoms: _138  and  _141
REMARK   54  A    between atoms: _141  and  _142
REMARK   55  A    between atoms: _147  and  _148
REMARK   56  A    between atoms: _150  and  _152
REMARK   57  A    between atoms: _152  and  _153
REMARK   58  A    between atoms: _155  and  _157
REMARK   59  A    between atoms: _157  and  _158
REMARK   60  A    between atoms: _157  and  _160
REMARK   61  A    between atoms: _160  and  _161
REMARK   62  A    between atoms: _164  and  _166
REMARK   63  A    between atoms: _166  and  _167
REMARK   64  A    between atoms: _166  and  _169
REMARK   65  A    between atoms: _169  and  _170
REMARK   66  A    between atoms: _176  and  _178
REMARK   67  A    between atoms: _178  and  _179
REMARK   68  A    between atoms: _178  and  _181
REMARK   69  A    between atoms: _181  and  _182
REMARK   70  A    between atoms: _185  and  _187
REMARK   71  A    between atoms: _187  and  _188
REMARK   72  A    between atoms: _190  and  _192
REMARK   73  A    between atoms: _192  and  _193
REMARK   74  A    between atoms: _192  and  _195
REMARK   75  A    between atoms: _195  and  _196
REMARK   76  A    between atoms: _199  and  _201
REMARK   77  A    between atoms: _201  and  _202
REMARK   78  A    between atoms: _201  and  _204
REMARK   79  A    between atoms: _207  and  _209
REMARK   80  A    between atoms: _209  and  _210
REMARK   81  A    between atoms: _209  and  _212
REMARK   82  A    between atoms: _215  and  _217
REMARK   83  A    between atoms: _217  and  _218
REMARK   84  A    between atoms: _221  and  _223
REMARK   85  A    between atoms: _234  and  _237
REMARK   86  A    between atoms: _237  and  _238
REMARK   87  A    between atoms: _238  and  _239
REMARK   88  A    between atoms: _244  and  _247
REMARK   89  A    between atoms: _247  and  _248
REMARK   90  A    between atoms: _253  and  _256
REMARK   91  A    between atoms: _256  and  _257
REMARK   92  A    between atoms: _262  and  _263
REMARK   93  A    between atoms: _271  and  _273
REMARK   94  A    between atoms: _273  and  _274
REMARK   95  A    between atoms: _277  and  _279
REMARK   96  A    between atoms: _279  and  _280
REMARK   97  A    between atoms: _279  and  _282
REMARK   98  A    between atoms: _282  and  _283
REMARK   99  A    between atoms: _286  and  _288
REMARK  100  A    between atoms: _288  and  _289
REMARK  101  A    between atoms: _288  and  _291
REMARK  102  A    between atoms: _291  and  _292
REMARK  103  A    between atoms: _295  and  _297
REMARK  104  A    between atoms: _297  and  _298
REMARK  105  A    between atoms: _300  and  _302
REMARK  106  A    between atoms: _302  and  _303
REMARK  107  A    between atoms: _302  and  _305
REMARK  108  A    between atoms: _305  and  _306
REMARK  109  A    between atoms: _309  and  _311
REMARK  110  A    between atoms: _311  and  _312
REMARK  111  A    between atoms: _311  and  _314
REMARK  112  A    between atoms: _314  and  _315
REMARK  113  A    between atoms: _318  and  _320
REMARK  114  A    between atoms: _320  and  _321
REMARK  115  A    between atoms: _320  and  _323
REMARK  116  A    between atoms: _323  and  _324
REMARK  117  A    between atoms: _329  and  _330
REMARK  118  A    between atoms: _332  and  _334
REMARK  119  A    between atoms: _334  and  _335
REMARK  120  A    between atoms: _334  and  _337
REMARK  121  A    between atoms: _337  and  _338
REMARK  122  A    between atoms: _338  and  _339
REMARK  123  A    between atoms: _344  and  _346
REMARK  124  A    between atoms: _346  and  _347
REMARK  125  A    between atoms: _349  and  _351
REMARK  126  A    between atoms: _351  and  _352
REMARK  127  A    between atoms: _351  and  _354
REMARK  128  A    between atoms: _354  and  _355
REMARK  129  A    between atoms: _360  and  _362
REMARK  130  A    between atoms: _362  and  _363
REMARK  131  A    between atoms: _362  and  _365
REMARK  132  A    between atoms: _365  and  _366
REMARK  133  A    between atoms: _366  and  _367
REMARK  134  A    between atoms: _367  and  _368
REMARK  135  A    between atoms: _368  and  ZN_631
REMARK  136  A    between atoms: _370  and  _372
REMARK  137  A    between atoms: _372  and  _373
REMARK  138  A    between atoms: _372  and  _375
REMARK  139  A    between atoms: _375  and  _376
REMARK  140  A    between atoms: _378  and  _380
REMARK  141  A    between atoms: _380  and  _381
REMARK  142  A    between atoms: _380  and  _383
REMARK  143  A    between atoms: _383  and  _384
REMARK  144  A    between atoms: _387  and  _389
REMARK  145  A    between atoms: _389  and  _390
REMARK  146  A    between atoms: _392  and  _394
REMARK  147  A    between atoms: _394  and  _395
REMARK  148  A    between atoms: _394  and  _397
REMARK  149  A    between atoms: _397  and  _398
REMARK  150  A    between atoms: _401  and  _403
REMARK  151  A    between atoms: _403  and  _404
REMARK  152  A    between atoms: _406  and  _408
REMARK  153  A    between atoms: _408  and  _409
REMARK  154  A    between atoms: _408  and  _411
REMARK  155  A    between atoms: _411  and  _412
REMARK  156  A    between atoms: _412  and  _413
REMARK  157  A    between atoms: _416  and  _418
REMARK  158  A    between atoms: _418  and  _419
REMARK  159  A    between atoms: _418  and  _421
REMARK  160  A    between atoms: _424  and  _426
REMARK  161  A    between atoms: _426  and  _427
REMARK  162  A    between atoms: _426  and  _429
REMARK  163  A    between atoms: _429  and  _430
REMARK  164  A    between atoms: _435  and  _436
REMARK  165  A    between atoms: _438  and  _440
REMARK  166  A    between atoms: _440  and  _441
REMARK  167  A    between atoms: _440  and  _443
REMARK  168  A    between atoms: _443  and  _444
REMARK  169  A    between atoms: _447  and  _449
REMARK  170  A    between atoms: _449  and  _450
REMARK  171  A    between atoms: _449  and  _452
REMARK  172  A    between atoms: _452  and  _453
REMARK  173  A    between atoms: _453  and  _454
REMARK  174  A    between atoms: _454  and  _455
REMARK  175  A    between atoms: _464  and  _466
REMARK  176  A    between atoms: _466  and  _467
REMARK  177  A    between atoms: _466  and  _469
REMARK  178  A    between atoms: _469  and  _470
REMARK  179  A    between atoms: _473  and  _475
REMARK  180  A    between atoms: _475  and  _476
REMARK  181  A    between atoms: _475  and  _478
REMARK  182  A    between atoms: _478  and  _479
REMARK  183  A    between atoms: _484  and  _486
REMARK  184  A    between atoms: _486  and  _487
REMARK  185  A    between atoms: _486  and  _489
REMARK  186  A    between atoms: _492  and  _494
REMARK  187  A    between atoms: _494  and  _495
REMARK  188  A    between atoms: _494  and  _497
REMARK  189  A    between atoms: _497  and  _498
REMARK  190  A    between atoms: _503  and  _505
REMARK  191  A    between atoms: _505  and  _506
REMARK  192  A    between atoms: _505  and  _508
REMARK  193  A    between atoms: _508  and  _509
REMARK  194  A    between atoms: _512  and  _514
REMARK  195  A    between atoms: _514  and  _515
REMARK  196  A    between atoms: _514  and  _517
REMARK  197  A    between atoms: _517  and  _518
REMARK  198  A    between atoms: _520  and  _522
REMARK  199  A    between atoms: _522  and  _523
REMARK  200  A    between atoms: _522  and  _525
REMARK  201  A    between atoms: _525  and  _526
REMARK  202  A    between atoms: _526  and  _527
REMARK  203  A    between atoms: _527  and  _528
REMARK  204  A    between atoms: _537  and  _539
REMARK  205  A    between atoms: _539  and  _540
REMARK  206  A    between atoms: _539  and  _542
REMARK  207  A    between atoms: _542  and  _543
REMARK  208  A    between atoms: _546  and  _548
REMARK  209  A    between atoms: _548  and  _549
REMARK  210  A    between atoms: _548  and  _551
REMARK  211  A    between atoms: _551  and  _552
REMARK  212  A    between atoms: _555  and  _557
REMARK  213  A    between atoms: _557  and  _558
REMARK  214  A    between atoms: _557  and  _560
REMARK  215  A    between atoms: _560  and  _561
REMARK  216  A    between atoms: _564  and  _566
REMARK  217  A    between atoms: _566  and  _567
REMARK  218  A    between atoms: _566  and  _569
REMARK  219  A    between atoms: _569  and  _570
REMARK  220  A    between atoms: _575  and  _576
REMARK  221  A    between atoms: _578  and  _580
REMARK  222  A    between atoms: _580  and  _581
REMARK  223  A    between atoms: _580  and  _583
REMARK  224  A    between atoms: _583  and  _584
REMARK  225  A    between atoms: _586  and  _588
REMARK  226  A    between atoms: _588  and  _589
REMARK  227  A    between atoms: _588  and  _591
REMARK  228  A    between atoms: _591  and  _592
REMARK  229  A    between atoms: _597  and  _598
REMARK  230  A    between atoms: _600  and  _602
REMARK  231  A    between atoms: _602  and  _603
REMARK  232  A    between atoms: _602  and  _605
REMARK  233  A    between atoms: _605  and  _606
REMARK  234  A    between atoms: _612  and  _614
REMARK  235  A    between atoms: _614  and  _615
REMARK  236  A    between atoms: _614  and  _617
REMARK  237  A    between atoms: _620  and  _622
REMARK  238  A    between atoms: _622  and  _623
REMARK  239  A    between atoms: _622  and  _625
REMARK  240  A    between atoms: _625  and  _626
REMARK                            x       y       z     vdW  Elec       q    Type
REMARK                         _______ _______ _______ _____ _____    ______ ____
ROOT
ATOM      1  CA  TYR A   2      54.322  14.575   7.096  0.00  0.00    +0.141 C 
ENDROOT
BRANCH   1   4
ATOM      2  C   VAL A   1      53.051  16.553   7.758  0.00  0.00    +0.238 C 
ATOM      3  O   VAL A   1      51.955  15.953   7.660  0.00  0.00    -0.274 OA
ATOM      4  N   TYR A   2      54.213  15.959   7.499  0.00  0.00    -0.298 N 
ATOM      5  H   TYR A   2      55.085  16.518   7.591  0.00  0.00    +0.150 HD
BRANCH   2   6
ATOM      6  CA  VAL A   1      53.086  18.054   8.129  0.00  0.00    +0.145 C 
BRANCH   6   7
ATOM      7  CB  VAL A   1      52.254  18.809   7.053  0.00  0.00    +0.025 C 
ATOM      8  CG2 VAL A   1      51.951  20.247   7.454  0.00  0.00    +0.002 C 
ATOM      9  CG1 VAL A   1      52.861  18.807   5.649  0.00  0.00    +0.002 C 
ENDBRANCH   6   7
BRANCH   6  10
ATOM     10  N   VAL A   1      54.436  18.683   8.296  0.00  0.00    -0.238 NA
ATOM     11  H   VAL A   1      55.093  18.707   7.490  0.00  0.00    +0.142 HD
ENDBRANCH   6  10
ENDBRANCH   2   6
ENDBRANCH   1   4
BRANCH   1  12
ATOM     12  C   TYR A   2      54.505  13.651   8.275  0.00  0.00    +0.227 C 
ATOM     13  O   TYR A   2      55.193  14.022   9.185  0.00  0.00    -0.286 OA
ENDBRANCH   1  12
BRANCH   1  14
ATOM     14  CB  TYR A   2      55.511  14.552   6.191  0.00  0.00    +0.054 C 
BRANCH  14  15
ATOM     15  CG  TYR A   2      55.692  13.254   5.549  0.00  0.00    -0.020 A 
ATOM     16  CD2 TYR A   2      56.894  12.569   5.758  0.00  0.00    -0.001 A 
ATOM     17  CE2 TYR A   2      57.079  11.327   5.149  0.00  0.00    +0.036 A 
ATOM     18  CZ  TYR A   2      56.099  10.838   4.288  0.00  0.00    +0.134 A 
ATOM     19  CE1 TYR A   2      54.910  11.551   4.034  0.00  0.00    +0.036 A 
ATOM     20  CD1 TYR A   2      54.742  12.782   4.685  0.00  0.00    -0.001 A 
BRANCH  18  21
ATOM     21  OH  TYR A   2      56.306   9.653   3.658  0.00  0.00    -0.506 OA
ATOM     22  HH  TYR A   2      57.120   9.716   3.098  0.00  0.00    +0.292 HD
ENDBRANCH  18  21
ENDBRANCH  14  15
ENDBRANCH   1  14
TORSDOF 8
REMARK  Name = ../refined-set-2016/4tmn/4tmn_pocket.pdb
REMARK  240 active torsions:
REMARK  status: ('A' for Active; 'I' for Inactive)
REMARK    1  A    between atoms: _1  and  _3
REMARK    2  A    between atoms: _3  and  _4
REMARK    3  A    between atoms: _3  and  _6
REMARK    4  A    between atoms: _6  and  _7
REMARK    5  A    between atoms: _12  and  _13
REMARK    6  A    between atoms: _15  and  _17
REMARK    7  A    between atoms: _17  and  _18
REMARK    8  A    between atoms: _17  and  _20
REMARK    9  A    between atoms: _20  and  _21
REMARK   10  A    between atoms: _26  and  _27
REMARK   11  A    between atoms: _29  and  _31
REMARK   12  A    between atoms: _31  and  _32
REMARK   13  A    between atoms: _31  and  _34
REMARK   14  A    between atoms: _34  and  _35
REMARK   15  A    between atoms: _40  and  _42
REMARK   16  A    between atoms: _42  and  _43
REMARK   17  A    between atoms: _42  and  _45
REMARK   18  A    between atoms: _45  and  _46
REMARK   19  A    between atoms: _51  and  _53
REMARK   20  A    between atoms: _53  and  _54
REMARK   21  A    between atoms: _57  and  _59
REMARK   22  A    between atoms: _59  and  _60
REMARK   23  A    between atoms: _59  and  _62
REMARK   24  A    between atoms: _62  and  _63
REMARK   25  A    between atoms: _69  and  _71
REMARK   26  A    between atoms: _71  and  _72
REMARK   27  A    between atoms: _71  and  _74
REMARK   28  A    between atoms: _74  and  _75
REMARK   29  A    between atoms: _85  and  _87
REMARK   30  A    between atoms: _87  and  _88
REMARK   31  A    between atoms: _87  and  _90
REMARK   32  A    between atoms: _90  and  _91
REMARK   33  A    between atoms: _96  and  _98
REMARK   34  A    between atoms: _98  and  _99
REMARK   35  A    between atoms: _103  and  _104
REMARK   36  A    between atoms: _103  and  _106
REMARK   37  A    between atoms: _106  and  _107
REMARK   38  A    between atoms: _109  and  _111
REMARK   39  A    between atoms: _111  and  _112
REMARK   40  A    between atoms: _111  and  _114
REMARK   41  A    between atoms: _114  and  _115
REMARK   42  A    between atoms: _115  and  _116
REMARK   43  A    between atoms: _119  and  _121
REMARK   44  A    between atoms: _121  and  _122
REMARK   45  A    between atoms: _121  and  _124
REMARK   46  A    between atoms: _124  and  _125
REMARK   47  A    between atoms: _125  and  _126
REMARK   48  A    between atoms: _128  and  _130
REMARK   49  A    between atoms: _130  and  _131
REMARK   50  A    between atoms: _130  and  _133
REMARK   51  A    between atoms: _136  and  _138
REMARK   52  A    between atoms: _138  and  _139
REMARK   53  A    between atoms: _138  and  _141
REMARK   54  A    between atoms: _141  and  _142
REMARK   55  A    between atoms: _147  and  _148
REMARK   56  A    between atoms: _150  and  _152
REMARK   57  A    between atoms: _152  and  _153
REMARK   58  A    between atoms: _155  and  _157
REMARK   59  A    between atoms: _157  and  _158
REMARK   60  A    between atoms: _157  and  _160
REMARK   61  A    between atoms: _160  and  _161
REMARK   62  A    between atoms: _164  and  _166
REMARK   63  A    between atoms: _166  and  _167
REMARK   64  A    between atoms: _166  and  _169
REMARK   65  A    between atoms: _169  and  _170
REMARK   66  A    between atoms: _176  and  _178
REMARK   67  A    between atoms: _178  and  _179
REMARK   68  A    between atoms: _178  and  _181
REMARK   69  A    between atoms: _181  and  _182
REMARK   70  A    between atoms: _185  and  _187
REMARK   71  A    between atoms: _187  and  _188
REMARK   72  A    between atoms: _190  and  _192
REMARK   73  A    between atoms: _192  and  _193
REMARK   74  A    between atoms: _192  and  _195
REMARK   75  A    between atoms: _195  and  _196
REMARK   76  A    between atoms: _199  and  _201
REMARK   77  A    between atoms: _201  and  _202
REMARK   78  A    between atoms: _201  and  _204
REMARK   79  A    between atoms: _207  and  _209
REMARK   80  A    between atoms: _209  and  _210
REMARK   81  A    between atoms: _209  and  _212
REMARK   82  A    between atoms: _215  and  _217
REMARK   83  A    between atoms: _217  and  _218
REMARK   84  A    between atoms: _221  and  _223
REMARK   85  A    between atoms: _234  and  _237
REMARK   86  A    between atoms: _237  and  _238
REMARK   87  A    between atoms: _238  and  _239
REMARK   88  A    between atoms: _244  and  _247
REMARK   89  A    between atoms: _247  and  _248
REMARK   90  A    between atoms: _253  and  _256
REMARK   91  A    between atoms: _256  and  _257
REMARK   92  A    between atoms: _262  and  _263
REMARK   93  A    between atoms: _271  and  _273
REMARK   94  A    between atoms: _273  and  _274
REMARK   95  A    between atoms: _277  and  _279
REMARK   96  A    between atoms: _279  and  _280
REMARK   97  A    between atoms: _279  and  _282
REMARK   98  A    between atoms: _282  and  _283
REMARK   99  A    between atoms: _286  and  _288
REMARK  100  A    between atoms: _288  and  _289
REMARK  101  A    between atoms: _288  and  _291
REMARK  102  A    between atoms: _291  and  _292
REMARK  103  A    between atoms: _295  and  _297
REMARK  104  A    between atoms: _297  and  _298
REMARK  105  A    between atoms: _300  and  _302
REMARK  106  A    between atoms: _302  and  _303
REMARK  107  A    between atoms: _302  and  _305
REMARK  108  A    between atoms: _305  and  _306
REMARK  109  A    between atoms: _309  and  _311
REMARK  110  A    between atoms: _311  and  _312
REMARK  111  A    between atoms: _311  and  _314
REMARK  112  A    between atoms: _314  and  _315
REMARK  113  A    between atoms: _318  and  _320
REMARK  114  A    between atoms: _320  and  _321
REMARK  115  A    between atoms: _320  and  _323
REMARK  116  A    between atoms: _323  and  _324
REMARK  117  A    between atoms: _329  and  _330
REMARK  118  A    between atoms: _332  and  _334
REMARK  119  A    between atoms: _334  and  _335
REMARK  120  A    between atoms: _334  and  _337
REMARK  121  A    between atoms: _337  and  _338
REMARK  122  A    between atoms: _338  and  _339
REMARK  123  A    between atoms: _344  and  _346
REMARK  124  A    between atoms: _346  and  _347
REMARK  125  A    between atoms: _349  and  _351
REMARK  126  A    between atoms: _351  and  _352
REMARK  127  A    between atoms: _351  and  _354
REMARK  128  A    between atoms: _354  and  _355
REMARK  129  A    between atoms: _360  and  _362
REMARK  130  A    between atoms: _362  and  _363
REMARK  131  A    between atoms: _362  and  _365
REMARK  132  A    between atoms: _365  and  _366
REMARK  133  A    between atoms: _366  and  _367
REMARK  134  A    between atoms: _367  and  _368
REMARK  135  A    between atoms: _368  and  ZN_631
REMARK  136  A    between atoms: _370  and  _372
REMARK  137  A    between atoms: _372  and  _373
REMARK  138  A    between atoms: _372  and  _375
REMARK  139  A    between atoms: _375  and  _376
REMARK  140  A    between atoms: _378  and  _380
REMARK  141  A    between atoms: _380  and  _381
REMARK  142  A    between atoms: _380  and  _383
REMARK  143  A    between atoms: _383  and  _384
REMARK  144  A    between atoms: _387  and  _389
REMARK  145  A    between atoms: _389  and  _390
REMARK  146  A    between atoms: _392  and  _394
REMARK  147  A    between atoms: _394  and  _395
REMARK  148  A    between atoms: _394  and  _397
REMARK  149  A    between atoms: _397  and  _398
REMARK  150  A    between atoms: _401  and  _403
REMARK  151  A    between atoms: _403  and  _404
REMARK  152  A    between atoms: _406  and  _408
REMARK  153  A    between atoms: _408  and  _409
REMARK  154  A    between atoms: _408  and  _411
REMARK  155  A    between atoms: _411  and  _412
REMARK  156  A    between atoms: _412  and  _413
REMARK  157  A    between atoms: _416  and  _418
REMARK  158  A    between atoms: _418  and  _419
REMARK  159  A    between atoms: _418  and  _421
REMARK  160  A    between atoms: _424  and  _426
REMARK  161  A    between atoms: _426  and  _427
REMARK  162  A    between atoms: _426  and  _429
REMARK  163  A    between atoms: _429  and  _430
REMARK  164  A    between atoms: _435  and  _436
REMARK  165  A    between atoms: _438  and  _440
REMARK  166  A    between atoms: _440  and  _441
REMARK  167  A    between atoms: _440  and  _443
REMARK  168  A    between atoms: _443  and  _444
REMARK  169  A    between atoms: _447  and  _449
REMARK  170  A    between atoms: _449  and  _450
REMARK  171  A    between atoms: _449  and  _452
REMARK  172  A    between atoms: _452  and  _453
REMARK  173  A    between atoms: _453  and  _454
REMARK  174  A    between atoms: _454  and  _455
REMARK  175  A    between atoms: _464  and  _466
REMARK  176  A    between atoms: _466  and  _467
REMARK  177  A    between atoms: _466  and  _469
REMARK  178  A    between atoms: _469  and  _470
REMARK  179  A    between atoms: _473  and  _475
REMARK  180  A    between atoms: _475  and  _476
REMARK  181  A    between atoms: _475  and  _478
REMARK  182  A    between atoms: _478  and  _479
REMARK  183  A    between atoms: _484  and  _486
REMARK  184  A    between atoms: _486  and  _487
REMARK  185  A    between atoms: _486  and  _489
REMARK  186  A    between atoms: _492  and  _494
REMARK  187  A    between atoms: _494  and  _495
REMARK  188  A    between atoms: _494  and  _497
REMARK  189  A    between atoms: _497  and  _498
REMARK  190  A    between atoms: _503  and  _505
REMARK  191  A    between atoms: _505  and  _506
REMARK  192  A    between atoms: _505  and  _508
REMARK  193  A    between atoms: _508  and  _509
REMARK  194  A    between atoms: _512  and  _514
REMARK  195  A    between atoms: _514  and  _515
REMARK  196  A    between atoms: _514  and  _517
REMARK  197  A    between atoms: _517  and  _518
REMARK  198  A    between atoms: _520  and  _522
REMARK  199  A    between atoms: _522  and  _523
REMARK  200  A    between atoms: _522  and  _525
REMARK  201  A    between atoms: _525  and  _526
REMARK  202  A    between atoms: _526  and  _527
REMARK  203  A    between atoms: _527  and  _528
REMARK  204  A    between atoms: _537  and  _539
REMARK  205  A    between atoms: _539  and  _540
REMARK  206  A    between atoms: _539  and  _542
REMARK  207  A    between atoms: _542  and  _543
REMARK  208  A    between atoms: _546  and  _548
REMARK  209  A    between atoms: _548  and  _549
REMARK  210  A    between atoms: _548  and  _551
REMARK  211  A    between atoms: _551  and  _552
REMARK  212  A    between atoms: _555  and  _557
REMARK  213  A    between atoms: _557  and  _558
REMARK  214  A    between atoms: _557  and  _560
REMARK  215  A    between atoms: _560  and  _561
REMARK  216  A    between atoms: _564  and  _566
REMARK  217  A    between atoms: _566  and  _567
REMARK  218  A    between atoms: _566  and  _569
REMARK  219  A    between atoms: _569  and  _570
REMARK  220  A    between atoms: _575  and  _576
REMARK  221  A    between atoms: _578  and  _580
REMARK  222  A    between atoms: _580  and  _581
REMARK  223  A    between atoms: _580  and  _583
REMARK  224  A    between atoms: _583  and  _584
REMARK  225  A    between atoms: _586  and  _588
REMARK  226  A    between atoms: _588  and  _589
REMARK  227  A    between atoms: _588  and  _591
REMARK  228  A    between atoms: _591  and  _592
REMARK  229  A    between atoms: _597  and  _598
REMARK  230  A    between atoms: _600  and  _602
REMARK  231  A    between atoms: _602  and  _603
REMARK  232  A    between atoms: _602  and  _605
REMARK  233  A    between atoms: _605  and  _606
REMARK  234  A    between atoms: _612  and  _614
REMARK  235  A    between atoms: _614  and  _615
REMARK  236  A    between atoms: _614  and  _617
REMARK  237  A    between atoms: _620  and  _622
REMARK  238  A    between atoms: _622  and  _623
REMARK  239  A    between atoms: _622  and  _625
REMARK  240  A    between atoms: _625  and  _626
REMARK                            x       y       z     vdW  Elec       q    Type
REMARK                         _______ _______ _______ _____ _____    ______ ____
ROOT
ATOM      1  CA  ARG A   2      61.693  14.651   0.091  0.00  0.00    +0.137 C 
ENDROOT
BRANCH   1   3
ATOM      2  C   LEU A   1      59.705  13.641   1.076  0.00  0.00    +0.238 C 
ATOM      3  N   ARG A   2      60.580  14.642   0.987  0.00  0.00    -0.298 N 
ATOM      4  H   ARG A   2      60.445  15.466   1.607  0.00  0.00    +0.150 HD
ATOM      5  O   LEU A   1      59.748  12.608   0.334  0.00  0.00    -0.274 OA
BRANCH   2   6
ATOM      6  CA  LEU A   1      58.587  13.862   2.113  0.00  0.00    +0.145 C 
BRANCH   6   7
ATOM      7  N   LEU A   1      59.064  14.432   3.334  0.00  0.00    -0.238 NA
ATOM      8  H   LEU A   1      58.881  15.437   3.532  0.00  0.00    +0.142 HD
ENDBRANCH   6   7
BRANCH   6   9
ATOM      9  CB  LEU A   1      57.406  14.772   1.639  0.00  0.00    +0.026 C 
BRANCH   9  10
ATOM     10  CG  LEU A   1      56.825  14.423   0.322  0.00  0.00    +0.002 C 
ATOM     11  CD2 LEU A   1      56.038  13.206   0.658  0.00  0.00    +0.000 C 
ATOM     12  CD1 LEU A   1      55.743  15.439  -0.067  0.00  0.00    +0.000 C 
ENDBRANCH   9  10
ENDBRANCH   6   9
ENDBRANCH   2   6
ENDBRANCH   1   3
BRANCH   1  13
ATOM     13  C   ARG A   2      62.777  15.408   0.775  0.00  0.00    +0.227 C 
ATOM     14  O   ARG A   2      62.481  16.247   1.686  0.00  0.00    -0.286 OA
ENDBRANCH   1  13
BRANCH   1  15
ATOM     15  CB  ARG A   2      61.447  15.450  -1.156  0.00  0.00    +0.031 C 
BRANCH  15  16
ATOM     16  CG  ARG A   2      60.574  14.762  -2.141  0.00  0.00    +0.045 C 
BRANCH  16  17
ATOM     17  CD  ARG A   2      60.474  15.583  -3.437  0.00  0.00    +0.174 C 
BRANCH  17  18
ATOM     18  NE  ARG A   2      59.581  16.808  -3.418  0.00  0.00    -0.265 N 
ATOM     19  CZ  ARG A   2      58.172  16.848  -3.360  0.00  0.00    +0.342 C 
ATOM     20  NH2 ARG A   2      57.416  15.745  -3.293  0.00  0.00    -0.292 N 
ATOM     21 HH21 ARG A   2      56.380  15.826  -3.252  0.00  0.00    +0.255 HD
ATOM     22 HH22 ARG A   2      57.865  14.807  -3.282  0.00  0.00    +0.255 HD
ATOM     23  NH1 ARG A   2      57.494  18.008  -3.413  0.00  0.00    -0.292 N 
ATOM     24 HH11 ARG A   2      56.455  18.006  -3.368  0.00  0.00    +0.255 HD
ATOM     25 HH12 ARG A   2      58.009  18.908  -3.499  0.00  0.00    +0.255 HD
ATOM     26  HE  ARG A   2      60.065  17.728  -3.452  0.00  0.00    +0.259 HD
ENDBRANCH  17  18
ENDBRANCH  16  17
ENDBRANCH  15  16
ENDBRANCH   1  15
TORSDOF 10
REMARK  Name = ../refined-set-2016/4tmn/4tmn_pocket.pdb
REMARK  240 active torsions:
REMARK  status: ('A' for Active; 'I' for Inactive)
REMARK    1  A    between atoms: _1  and  _3
REMARK    2  A    between atoms: _3  and  _4
REMARK    3  A    between atoms: _3  and  _6
REMARK    4  A    between atoms: _6  and  _7
REMARK    5  A    between atoms: _12  and  _13
REMARK    6  A    between atoms: _15  and  _17
REMARK    7  A    between atoms: _17  and  _18
REMARK    8  A    between atoms: _17  and  _20
REMARK    9  A    between atoms: _20  and  _21
REMARK   10  A    between atoms: _26  and  _27
REMARK   11  A    between atoms: _29  and  _31
REMARK   12  A    between atoms: _31  and  _32
REMARK   13  A    between atoms: _31  and  _34
REMARK   14  A    between atoms: _34  and  _35
REMARK   15  A    between atoms: _40  and  _42
REMARK   16  A    between atoms: _42  and  _43
REMARK   17  A    between atoms: _42  and  _45
REMARK   18  A    between atoms: _45  and  _46
REMARK   19  A    between atoms: _51  and  _53
REMARK   20  A    between atoms: _53  and  _54
REMARK   21  A    between atoms: _57  and  _59
REMARK   22  A    between atoms: _59  and  _60
REMARK   23  A    between atoms: _59  and  _62
REMARK   24  A    between atoms: _62  and  _63
REMARK   25  A    between atoms: _69  and  _71
REMARK   26  A    between atoms: _71  and  _72
REMARK   27  A    between atoms: _71  and  _74
REMARK   28  A    between atoms: _74  and  _75
REMARK   29  A    between atoms: _85  and  _87
REMARK   30  A    between atoms: _87  and  _88
REMARK   31  A    between atoms: _87  and  _90
REMARK   32  A    between atoms: _90  and  _91
REMARK   33  A    between atoms: _96  and  _98
REMARK   34  A    between atoms: _98  and  _99
REMARK   35  A    between atoms: _103  and  _104
REMARK   36  A    between atoms: _103  and  _106
REMARK   37  A    between atoms: _106  and  _107
REMARK   38  A    between atoms: _109  and  _111
REMARK   39  A    between atoms: _111  and  _112
REMARK   40  A    between atoms: _111  and  _114
REMARK   41  A    between atoms: _114  and  _115
REMARK   42  A    between atoms: _115  and  _116
REMARK   43  A    between atoms: _119  and  _121
REMARK   44  A    between atoms: _121  and  _122
REMARK   45  A    between atoms: _121  and  _124
REMARK   46  A    between atoms: _124  and  _125
REMARK   47  A    between atoms: _125  and  _126
REMARK   48  A    between atoms: _128  and  _130
REMARK   49  A    between atoms: _130  and  _131
REMARK   50  A    between atoms: _130  and  _133
REMARK   51  A    between atoms: _136  and  _138
REMARK   52  A    between atoms: _138  and  _139
REMARK   53  A    between atoms: _138  and  _141
REMARK   54  A    between atoms: _141  and  _142
REMARK   55  A    between atoms: _147  and  _148
REMARK   56  A    between atoms: _150  and  _152
REMARK   57  A    between atoms: _152  and  _153
REMARK   58  A    between atoms: _155  and  _157
REMARK   59  A    between atoms: _157  and  _158
REMARK   60  A    between atoms: _157  and  _160
REMARK   61  A    between atoms: _160  and  _161
REMARK   62  A    between atoms: _164  and  _166
REMARK   63  A    between atoms: _166  and  _167
REMARK   64  A    between atoms: _166  and  _169
REMARK   65  A    between atoms: _169  and  _170
REMARK   66  A    between atoms: _176  and  _178
REMARK   67  A    between atoms: _178  and  _179
REMARK   68  A    between atoms: _178  and  _181
REMARK   69  A    between atoms: _181  and  _182
REMARK   70  A    between atoms: _185  and  _187
REMARK   71  A    between atoms: _187  and  _188
REMARK   72  A    between atoms: _190  and  _192
REMARK   73  A    between atoms: _192  and  _193
REMARK   74  A    between atoms: _192  and  _195
REMARK   75  A    between atoms: _195  and  _196
REMARK   76  A    between atoms: _199  and  _201
REMARK   77  A    between atoms: _201  and  _202
REMARK   78  A    between atoms: _201  and  _204
REMARK   79  A    between atoms: _207  and  _209
REMARK   80  A    between atoms: _209  and  _210
REMARK   81  A    between atoms: _209  and  _212
REMARK   82  A    between atoms: _215  and  _217
REMARK   83  A    between atoms: _217  and  _218
REMARK   84  A    between atoms: _221  and  _223
REMARK   85  A    between atoms: _234  and  _237
REMARK   86  A    between atoms: _237  and  _238
REMARK   87  A    between atoms: _238  and  _239
REMARK   88  A    between atoms: _244  and  _247
REMARK   89  A    between atoms: _247  and  _248
REMARK   90  A    between atoms: _253  and  _256
REMARK   91  A    between atoms: _256  and  _257
REMARK   92  A    between atoms: _262  and  _263
REMARK   93  A    between atoms: _271  and  _273
REMARK   94  A    between atoms: _273  and  _274
REMARK   95  A    between atoms: _277  and  _279
REMARK   96  A    between atoms: _279  and  _280
REMARK   97  A    between atoms: _279  and  _282
REMARK   98  A    between atoms: _282  and  _283
REMARK   99  A    between atoms: _286  and  _288
REMARK  100  A    between atoms: _288  and  _289
REMARK  101  A    between atoms: _288  and  _291
REMARK  102  A    between atoms: _291  and  _292
REMARK  103  A    between atoms: _295  and  _297
REMARK  104  A    between atoms: _297  and  _298
REMARK  105  A    between atoms: _300  and  _302
REMARK  106  A    between atoms: _302  and  _303
REMARK  107  A    between atoms: _302  and  _305
REMARK  108  A    between atoms: _305  and  _306
REMARK  109  A    between atoms: _309  and  _311
REMARK  110  A    between atoms: _311  and  _312
REMARK  111  A    between atoms: _311  and  _314
REMARK  112  A    between atoms: _314  and  _315
REMARK  113  A    between atoms: _318  and  _320
REMARK  114  A    between atoms: _320  and  _321
REMARK  115  A    between atoms: _320  and  _323
REMARK  116  A    between atoms: _323  and  _324
REMARK  117  A    between atoms: _329  and  _330
REMARK  118  A    between atoms: _332  and  _334
REMARK  119  A    between atoms: _334  and  _335
REMARK  120  A    between atoms: _334  and  _337
REMARK  121  A    between atoms: _337  and  _338
REMARK  122  A    between atoms: _338  and  _339
REMARK  123  A    between atoms: _344  and  _346
REMARK  124  A    between atoms: _346  and  _347
REMARK  125  A    between atoms: _349  and  _351
REMARK  126  A    between atoms: _351  and  _352
REMARK  127  A    between atoms: _351  and  _354
REMARK  128  A    between atoms: _354  and  _355
REMARK  129  A    between atoms: _360  and  _362
REMARK  130  A    between atoms: _362  and  _363
REMARK  131  A    between atoms: _362  and  _365
REMARK  132  A    between atoms: _365  and  _366
REMARK  133  A    between atoms: _366  and  _367
REMARK  134  A    between atoms: _367  and  _368
REMARK  135  A    between atoms: _368  and  ZN_631
REMARK  136  A    between atoms: _370  and  _372
REMARK  137  A    between atoms: _372  and  _373
REMARK  138  A    between atoms: _372  and  _375
REMARK  139  A    between atoms: _375  and  _376
REMARK  140  A    between atoms: _378  and  _380
REMARK  141  A    between atoms: _380  and  _381
REMARK  142  A    between atoms: _380  and  _383
REMARK  143  A    between atoms: _383  and  _384
REMARK  144  A    between atoms: _387  and  _389
REMARK  145  A    between atoms: _389  and  _390
REMARK  146  A    between atoms: _392  and  _394
REMARK  147  A    between atoms: _394  and  _395
REMARK  148  A    between atoms: _394  and  _397
REMARK  149  A    between atoms: _397  and  _398
REMARK  150  A    between atoms: _401  and  _403
REMARK  151  A    between atoms: _403  and  _404
REMARK  152  A    between atoms: _406  and  _408
REMARK  153  A    between atoms: _408  and  _409
REMARK  154  A    between atoms: _408  and  _411
REMARK  155  A    between atoms: _411  and  _412
REMARK  156  A    between atoms: _412  and  _413
REMARK  157  A    between atoms: _416  and  _418
REMARK  158  A    between atoms: _418  and  _419
REMARK  159  A    between atoms: _418  and  _421
REMARK  160  A    between atoms: _424  and  _426
REMARK  161  A    between atoms: _426  and  _427
REMARK  162  A    between atoms: _426  and  _429
REMARK  163  A    between atoms: _429  and  _430
REMARK  164  A    between atoms: _435  and  _436
REMARK  165  A    between atoms: _438  and  _440
REMARK  166  A    between atoms: _440  and  _441
REMARK  167  A    between atoms: _440  and  _443
REMARK  168  A    between atoms: _443  and  _444
REMARK  169  A    between atoms: _447  and  _449
REMARK  170  A    between atoms: _449  and  _450
REMARK  171  A    between atoms: _449  and  _452
REMARK  172  A    between atoms: _452  and  _453
REMARK  173  A    between atoms: _453  and  _454
REMARK  174  A    between atoms: _454  and  _455
REMARK  175  A    between atoms: _464  and  _466
REMARK  176  A    between atoms: _466  and  _467
REMARK  177  A    between atoms: _466  and  _469
REMARK  178  A    between atoms: _469  and  _470
REMARK  179  A    between atoms: _473  and  _475
REMARK  180  A    between atoms: _475  and  _476
REMARK  181  A    between atoms: _475  and  _478
REMARK  182  A    between atoms: _478  and  _479
REMARK  183  A    between atoms: _484  and  _486
REMARK  184  A    between atoms: _486  and  _487
REMARK  185  A    between atoms: _486  and  _489
REMARK  186  A    between atoms: _492  and  _494
REMARK  187  A    between atoms: _494  and  _495
REMARK  188  A    between atoms: _494  and  _497
REMARK  189  A    between atoms: _497  and  _498
REMARK  190  A    between atoms: _503  and  _505
REMARK  191  A    between atoms: _505  and  _506
REMARK  192  A    between atoms: _505  and  _508
REMARK  193  A    between atoms: _508  and  _509
REMARK  194  A    between atoms: _512  and  _514
REMARK  195  A    between atoms: _514  and  _515
REMARK  196  A    between atoms: _514  and  _517
REMARK  197  A    between atoms: _517  and  _518
REMARK  198  A    between atoms: _520  and  _522
REMARK  199  A    between atoms: _522  and  _523
REMARK  200  A    between atoms: _522  and  _525
REMARK  201  A    between atoms: _525  and  _526
REMARK  202  A    between atoms: _526  and  _527
REMARK  203  A    between atoms: _527  and  _528
REMARK  204  A    between atoms: _537  and  _539
REMARK  205  A    between atoms: _539  and  _540
REMARK  206  A    between atoms: _539  and  _542
REMARK  207  A    between atoms: _542  and  _543
REMARK  208  A    between atoms: _546  and  _548
REMARK  209  A    between atoms: _548  and  _549
REMARK  210  A    between atoms: _548  and  _551
REMARK  211  A    between atoms: _551  and  _552
REMARK  212  A    between atoms: _555  and  _557
REMARK  213  A    between atoms: _557  and  _558
REMARK  214  A    between atoms: _557  and  _560
REMARK  215  A    between atoms: _560  and  _561
REMARK  216  A    between atoms: _564  and  _566
REMARK  217  A    between atoms: _566  and  _567
REMARK  218  A    between atoms: _566  and  _569
REMARK  219  A    between atoms: _569  and  _570
REMARK  220  A    between atoms: _575  and  _576
REMARK  221  A    between atoms: _578  and  _580
REMARK  222  A    between atoms: _580  and  _581
REMARK  223  A    between atoms: _580  and  _583
REMARK  224  A    between atoms: _583  and  _584
REMARK  225  A    between atoms: _586  and  _588
REMARK  226  A    between atoms: _588  and  _589
REMARK  227  A    between atoms: _588  and  _591
REMARK  228  A    between atoms: _591  and  _592
REMARK  229  A    between atoms: _597  and  _598
REMARK  230  A    between atoms: _600  and  _602
REMARK  231  A    between atoms: _602  and  _603
REMARK  232  A    between atoms: _602  and  _605
REMARK  233  A    between atoms: _605  and  _606
REMARK  234  A    between atoms: _612  and  _614
REMARK  235  A    between atoms: _614  and  _615
REMARK  236  A    between atoms: _614  and  _617
REMARK  237  A    between atoms: _620  and  _622
REMARK  238  A    between atoms: _622  and  _623
REMARK  239  A    between atoms: _622  and  _625
REMARK  240  A    between atoms: _625  and  _626
REMARK                            x       y       z     vdW  Elec       q    Type
REMARK                         _______ _______ _______ _____ _____    ______ ____
ROOT
ATOM      1  C   ASP A   1      54.480  11.033 -12.846  0.00  0.00    +0.239 C 
ATOM      2  O   ASP A   1      55.390  11.844 -12.770  0.00  0.00    -0.274 OA
ATOM      3  N   ASN A   2      53.702  10.949 -13.883  0.00  0.00    -0.298 N 
ATOM      4  H   ASN A   2      52.906  10.279 -13.874  0.00  0.00    +0.150 HD
ENDROOT
BRANCH   1   5
ATOM      5  CA  ASP A   1      54.159  10.063 -11.732  0.00  0.00    +0.156 C 
BRANCH   5   6
ATOM      6  N   ASP A   1      53.956   8.727 -12.253  0.00  0.00    -0.238 NA
ATOM      7  H   ASP A   1      53.074   8.230 -12.015  0.00  0.00    +0.142 HD
ENDBRANCH   5   6
BRANCH   5   8
ATOM      8  CB  ASP A   1      55.280  10.032 -10.709  0.00  0.00    +0.140 C 
BRANCH   8   9
ATOM      9  CG  ASP A   1      55.467  11.370 -10.053  0.00  0.00    +0.367 C 
ATOM     10  OD2 ASP A   1      56.686  11.616  -9.750  0.00  0.00    -0.246 OA
ATOM     11  OD1 ASP A   1      54.570  12.129  -9.787  0.00  0.00    -0.246 OA
ENDBRANCH   8   9
ENDBRANCH   5   8
ENDBRANCH   1   5
BRANCH   3  12
ATOM     12  CA  ASN A   2      53.925  11.769 -15.045  0.00  0.00    +0.146 C 
BRANCH  12  13
ATOM     13  C   ASN A   2      55.325  11.672 -15.555  0.00  0.00    +0.227 C 
ATOM     14  O   ASN A   2      55.864  12.684 -16.038  0.00  0.00    -0.286 OA
ENDBRANCH  12  13
BRANCH  12  15
ATOM     15  CB  ASN A   2      53.602  13.254 -14.857  0.00  0.00    +0.112 C 
BRANCH  15  16
ATOM     16  CG  ASN A   2      52.107  13.460 -14.773  0.00  0.00    +0.222 C 
ATOM     17  OD1 ASN A   2      51.533  13.794 -13.671  0.00  0.00    -0.275 OA
ATOM     18  ND2 ASN A   2      51.490  13.188 -15.937  0.00  0.00    -0.329 N 
ATOM     19 HD21 ASN A   2      50.453  13.239 -16.000  0.00  0.00    +0.145 HD
ATOM     20 HD22 ASN A   2      52.050  12.926 -16.774  0.00  0.00    +0.145 HD
ENDBRANCH  15  16
ENDBRANCH  12  15
ENDBRANCH   3  12
TORSDOF 8
REMARK  Name = ../refined-set-2016/4tmn/4tmn_pocket.pdb
REMARK  240 active torsions:
REMARK  status: ('A' for Active; 'I' for Inactive)
REMARK    1  A    between atoms: _1  and  _3
REMARK    2  A    between atoms: _3  and  _4
REMARK    3  A    between atoms: _3  and  _6
REMARK    4  A    between atoms: _6  and  _7
REMARK    5  A    between atoms: _12  and  _13
REMARK    6  A    between atoms: _15  and  _17
REMARK    7  A    between atoms: _17  and  _18
REMARK    8  A    between atoms: _17  and  _20
REMARK    9  A    between atoms: _20  and  _21
REMARK   10  A    between atoms: _26  and  _27
REMARK   11  A    between atoms: _29  and  _31
REMARK   12  A    between atoms: _31  and  _32
REMARK   13  A    between atoms: _31  and  _34
REMARK   14  A    between atoms: _34  and  _35
REMARK   15  A    between atoms: _40  and  _42
REMARK   16  A    between atoms: _42  and  _43
REMARK   17  A    between atoms: _42  and  _45
REMARK   18  A    between atoms: _45  and  _46
REMARK   19  A    between atoms: _51  and  _53
REMARK   20  A    between atoms: _53  and  _54
REMARK   21  A    between atoms: _57  and  _59
REMARK   22  A    between atoms: _59  and  _60
REMARK   23  A    between atoms: _59  and  _62
REMARK   24  A    between atoms: _62  and  _63
REMARK   25  A    between atoms: _69  and  _71
REMARK   26  A    between atoms: _71  and  _72
REMARK   27  A    between atoms: _71  and  _74
REMARK   28  A    between atoms: _74  and  _75
REMARK   29  A    between atoms: _85  and  _87
REMARK   30  A    between atoms: _87  and  _88
REMARK   31  A    between atoms: _87  and  _90
REMARK   32  A    between atoms: _90  and  _91
REMARK   33  A    between atoms: _96  and  _98
REMARK   34  A    between atoms: _98  and  _99
REMARK   35  A    between atoms: _103  and  _104
REMARK   36  A    between atoms: _103  and  _106
REMARK   37  A    between atoms: _106  and  _107
REMARK   38  A    between atoms: _109  and  _111
REMARK   39  A    between atoms: _111  and  _112
REMARK   40  A    between atoms: _111  and  _114
REMARK   41  A    between atoms: _114  and  _115
REMARK   42  A    between atoms: _115  and  _116
REMARK   43  A    between atoms: _119  and  _121
REMARK   44  A    between atoms: _121  and  _122
REMARK   45  A    between atoms: _121  and  _124
REMARK   46  A    between atoms: _124  and  _125
REMARK   47  A    between atoms: _125  and  _126
REMARK   48  A    between atoms: _128  and  _130
REMARK   49  A    between atoms: _130  and  _131
REMARK   50  A    between atoms: _130  and  _133
REMARK   51  A    between atoms: _136  and  _138
REMARK   52  A    between atoms: _138  and  _139
REMARK   53  A    between atoms: _138  and  _141
REMARK   54  A    between atoms: _141  and  _142
REMARK   55  A    between atoms: _147  and  _148
REMARK   56  A    between atoms: _150  and  _152
REMARK   57  A    between atoms: _152  and  _153
REMARK   58  A    between atoms: _155  and  _157
REMARK   59  A    between atoms: _157  and  _158
REMARK   60  A    between atoms: _157  and  _160
REMARK   61  A    between atoms: _160  and  _161
REMARK   62  A    between atoms: _164  and  _166
REMARK   63  A    between atoms: _166  and  _167
REMARK   64  A    between atoms: _166  and  _169
REMARK   65  A    between atoms: _169  and  _170
REMARK   66  A    between atoms: _176  and  _178
REMARK   67  A    between atoms: _178  and  _179
REMARK   68  A    between atoms: _178  and  _181
REMARK   69  A    between atoms: _181  and  _182
REMARK   70  A    between atoms: _185  and  _187
REMARK   71  A    between atoms: _187  and  _188
REMARK   72  A    between atoms: _190  and  _192
REMARK   73  A    between atoms: _192  and  _193
REMARK   74  A    between atoms: _192  and  _195
REMARK   75  A    between atoms: _195  and  _196
REMARK   76  A    between atoms: _199  and  _201
REMARK   77  A    between atoms: _201  and  _202
REMARK   78  A    between atoms: _201  and  _204
REMARK   79  A    between atoms: _207  and  _209
REMARK   80  A    between atoms: _209  and  _210
REMARK   81  A    between atoms: _209  and  _212
REMARK   82  A    between atoms: _215  and  _217
REMARK   83  A    between atoms: _217  and  _218
REMARK   84  A    between atoms: _221  and  _223
REMARK   85  A    between atoms: _234  and  _237
REMARK   86  A    between atoms: _237  and  _238
REMARK   87  A    between atoms: _238  and  _239
REMARK   88  A    between atoms: _244  and  _247
REMARK   89  A    between atoms: _247  and  _248
REMARK   90  A    between atoms: _253  and  _256
REMARK   91  A    between atoms: _256  and  _257
REMARK   92  A    between atoms: _262  and  _263
REMARK   93  A    between atoms: _271  and  _273
REMARK   94  A    between atoms: _273  and  _274
REMARK   95  A    between atoms: _277  and  _279
REMARK   96  A    between atoms: _279  and  _280
REMARK   97  A    between atoms: _279  and  _282
REMARK   98  A    between atoms: _282  and  _283
REMARK   99  A    between atoms: _286  and  _288
REMARK  100  A    between atoms: _288  and  _289
REMARK  101  A    between atoms: _288  and  _291
REMARK  102  A    between atoms: _291  and  _292
REMARK  103  A    between atoms: _295  and  _297
REMARK  104  A    between atoms: _297  and  _298
REMARK  105  A    between atoms: _300  and  _302
REMARK  106  A    between atoms: _302  and  _303
REMARK  107  A    between atoms: _302  and  _305
REMARK  108  A    between atoms: _305  and  _306
REMARK  109  A    between atoms: _309  and  _311
REMARK  110  A    between atoms: _311  and  _312
REMARK  111  A    between atoms: _311  and  _314
REMARK  112  A    between atoms: _314  and  _315
REMARK  113  A    between atoms: _318  and  _320
REMARK  114  A    between atoms: _320  and  _321
REMARK  115  A    between atoms: _320  and  _323
REMARK  116  A    between atoms: _323  and  _324
REMARK  117  A    between atoms: _329  and  _330
REMARK  118  A    between atoms: _332  and  _334
REMARK  119  A    between atoms: _334  and  _335
REMARK  120  A    between atoms: _334  and  _337
REMARK  121  A    between atoms: _337  and  _338
REMARK  122  A    between atoms: _338  and  _339
REMARK  123  A    between atoms: _344  and  _346
REMARK  124  A    between atoms: _346  and  _347
REMARK  125  A    between atoms: _349  and  _351
REMARK  126  A    between atoms: _351  and  _352
REMARK  127  A    between atoms: _351  and  _354
REMARK  128  A    between atoms: _354  and  _355
REMARK  129  A    between atoms: _360  and  _362
REMARK  130  A    between atoms: _362  and  _363
REMARK  131  A    between atoms: _362  and  _365
REMARK  132  A    between atoms: _365  and  _366
REMARK  133  A    between atoms: _366  and  _367
REMARK  134  A    between atoms: _367  and  _368
REMARK  135  A    between atoms: _368  and  ZN_631
REMARK  136  A    between atoms: _370  and  _372
REMARK  137  A    between atoms: _372  and  _373
REMARK  138  A    between atoms: _372  and  _375
REMARK  139  A    between atoms: _375  and  _376
REMARK  140  A    between atoms: _378  and  _380
REMARK  141  A    between atoms: _380  and  _381
REMARK  142  A    between atoms: _380  and  _383
REMARK  143  A    between atoms: _383  and  _384
REMARK  144  A    between atoms: _387  and  _389
REMARK  145  A    between atoms: _389  and  _390
REMARK  146  A    between atoms: _392  and  _394
REMARK  147  A    between atoms: _394  and  _395
REMARK  148  A    between atoms: _394  and  _397
REMARK  149  A    between atoms: _397  and  _398
REMARK  150  A    between atoms: _401  and  _403
REMARK  151  A    between atoms: _403  and  _404
REMARK  152  A    between atoms: _406  and  _408
REMARK  153  A    between atoms: _408  and  _409
REMARK  154  A    between atoms: _408  and  _411
REMARK  155  A    between atoms: _411  and  _412
REMARK  156  A    between atoms: _412  and  _413
REMARK  157  A    between atoms: _416  and  _418
REMARK  158  A    between atoms: _418  and  _419
REMARK  159  A    between atoms: _418  and  _421
REMARK  160  A    between atoms: _424  and  _426
REMARK  161  A    between atoms: _426  and  _427
REMARK  162  A    between atoms: _426  and  _429
REMARK  163  A    between atoms: _429  and  _430
REMARK  164  A    between atoms: _435  and  _436
REMARK  165  A    between atoms: _438  and  _440
REMARK  166  A    between atoms: _440  and  _441
REMARK  167  A    between atoms: _440  and  _443
REMARK  168  A    between atoms: _443  and  _444
REMARK  169  A    between atoms: _447  and  _449
REMARK  170  A    between atoms: _449  and  _450
REMARK  171  A    between atoms: _449  and  _452
REMARK  172  A    between atoms: _452  and  _453
REMARK  173  A    between atoms: _453  and  _454
REMARK  174  A    between atoms: _454  and  _455
REMARK  175  A    between atoms: _464  and  _466
REMARK  176  A    between atoms: _466  and  _467
REMARK  177  A    between atoms: _466  and  _469
REMARK  178  A    between atoms: _469  and  _470
REMARK  179  A    between atoms: _473  and  _475
REMARK  180  A    between atoms: _475  and  _476
REMARK  181  A    between atoms: _475  and  _478
REMARK  182  A    between atoms: _478  and  _479
REMARK  183  A    between atoms: _484  and  _486
REMARK  184  A    between atoms: _486  and  _487
REMARK  185  A    between atoms: _486  and  _489
REMARK  186  A    between atoms: _492  and  _494
REMARK  187  A    between atoms: _494  and  _495
REMARK  188  A    between atoms: _494  and  _497
REMARK  189  A    between atoms: _497  and  _498
REMARK  190  A    between atoms: _503  and  _505
REMARK  191  A    between atoms: _505  and  _506
REMARK  192  A    between atoms: _505  and  _508
REMARK  193  A    between atoms: _508  and  _509
REMARK  194  A    between atoms: _512  and  _514
REMARK  195  A    between atoms: _514  and  _515
REMARK  196  A    between atoms: _514  and  _517
REMARK  197  A    between atoms: _517  and  _518
REMARK  198  A    between atoms: _520  and  _522
REMARK  199  A    between atoms: _522  and  _523
REMARK  200  A    between atoms: _522  and  _525
REMARK  201  A    between atoms: _525  and  _526
REMARK  202  A    between atoms: _526  and  _527
REMARK  203  A    between atoms: _527  and  _528
REMARK  204  A    between atoms: _537  and  _539
REMARK  205  A    between atoms: _539  and  _540
REMARK  206  A    between atoms: _539  and  _542
REMARK  207  A    between atoms: _542  and  _543
REMARK  208  A    between atoms: _546  and  _548
REMARK  209  A    between atoms: _548  and  _549
REMARK  210  A    between atoms: _548  and  _551
REMARK  211  A    between atoms: _551  and  _552
REMARK  212  A    between atoms: _555  and  _557
REMARK  213  A    between atoms: _557  and  _558
REMARK  214  A    between atoms: _557  and  _560
REMARK  215  A    between atoms: _560  and  _561
REMARK  216  A    between atoms: _564  and  _566
REMARK  217  A    between atoms: _566  and  _567
REMARK  218  A    between atoms: _566  and  _569
REMARK  219  A    between atoms: _569  and  _570
REMARK  220  A    between atoms: _575  and  _576
REMARK  221  A    between atoms: _578  and  _580
REMARK  222  A    between atoms: _580  and  _581
REMARK  223  A    between atoms: _580  and  _583
REMARK  224  A    between atoms: _583  and  _584
REMARK  225  A    between atoms: _586  and  _588
REMARK  226  A    between atoms: _588  and  _589
REMARK  227  A    between atoms: _588  and  _591
REMARK  228  A    between atoms: _591  and  _592
REMARK  229  A    between atoms: _597  and  _598
REMARK  230  A    between atoms: _600  and  _602
REMARK  231  A    between atoms: _602  and  _603
REMARK  232  A    between atoms: _602  and  _605
REMARK  233  A    between atoms: _605  and  _606
REMARK  234  A    between atoms: _612  and  _614
REMARK  235  A    between atoms: _614  and  _615
REMARK  236  A    between atoms: _614  and  _617
REMARK  237  A    between atoms: _620  and  _622
REMARK  238  A    between atoms: _622  and  _623
REMARK  239  A    between atoms: _622  and  _625
REMARK  240  A    between atoms: _625  and  _626
REMARK                            x       y       z     vdW  Elec       q    Type
REMARK                         _______ _______ _______ _____ _____    ______ ____
ROOT
ATOM      1  CA  HIS A   2      58.329  14.154  -8.241  0.00  0.00    +0.155 C 
ENDROOT
BRANCH   1   3
ATOM      2  C   VAL A   1      58.528  14.849 -10.554  0.00  0.00    +0.238 C 
ATOM      3  N   HIS A   2      57.994  14.040  -9.647  0.00  0.00    -0.297 N 
ATOM      4  H   HIS A   2      57.321  13.308  -9.952  0.00  0.00    +0.150 HD
ATOM      5  O   VAL A   1      59.358  15.743 -10.257  0.00  0.00    -0.274 OA
BRANCH   2   6
ATOM      6  CA  VAL A   1      58.118  14.568 -11.992  0.00  0.00    +0.145 C 
BRANCH   6   7
ATOM      7  CB  VAL A   1      56.944  15.423 -12.523  0.00  0.00    +0.025 C 
ATOM      8  CG2 VAL A   1      55.787  15.510 -11.600  0.00  0.00    +0.002 C 
ATOM      9  CG1 VAL A   1      56.597  15.372 -13.990  0.00  0.00    +0.002 C 
ENDBRANCH   6   7
BRANCH   6  10
ATOM     10  N   VAL A   1      57.997  13.144 -12.260  0.00  0.00    -0.238 NA
ATOM     11  H   VAL A   1      57.096  12.776 -12.625  0.00  0.00    +0.142 HD
ENDBRANCH   6  10
ENDBRANCH   2   6
ENDBRANCH   1   3
BRANCH   1  12
ATOM     12  C   HIS A   2      59.566  13.308  -7.903  0.00  0.00    +0.241 C 
ATOM     13  O   HIS A   2      60.062  13.341  -6.754  0.00  0.00    -0.273 OA
ATOM     14  N   ILE A   3      60.036  12.509  -8.874  0.00  0.00    -0.298 N 
ATOM     15  H   ILE A   3      59.580  12.514  -9.809  0.00  0.00    +0.150 HD
BRANCH  14  16
ATOM     16  CA  ILE A   3      61.202  11.615  -8.630  0.00  0.00    +0.137 C 
BRANCH  16  17
ATOM     17  C   ILE A   3      62.480  12.261  -9.114  0.00  0.00    +0.227 C 
ATOM     18  O   ILE A   3      63.420  12.507  -8.364  0.00  0.00    -0.286 OA
ENDBRANCH  16  17
BRANCH  16  19
ATOM     19  CB  ILE A   3      61.021  10.203  -9.279  0.00  0.00    +0.026 C 
ATOM     20  CG2 ILE A   3      62.319   9.349  -9.128  0.00  0.00    +0.002 C 
BRANCH  19  21
ATOM     21  CG1 ILE A   3      59.734   9.467  -8.798  0.00  0.00    +0.002 C 
ATOM     22  CD1 ILE A   3      59.340   8.230  -9.646  0.00  0.00    +0.000 C 
ENDBRANCH  19  21
ENDBRANCH  16  19
ENDBRANCH  14  16
ENDBRANCH   1  12
BRANCH   1  23
ATOM     23  CB  HIS A   2      57.222  13.778  -7.215  0.00  0.00    +0.076 C 
BRANCH  23  24
ATOM     24  CG  HIS A   2      56.034  14.648  -7.328  0.00  0.00    +0.082 A 
ATOM     25  CD2 HIS A   2      55.736  15.823  -6.746  0.00  0.00    +0.115 A 
ATOM     26  NE2 HIS A   2      54.499  16.171  -7.263  0.00  0.00    -0.221 NA
ATOM     27  CE1 HIS A   2      54.097  15.253  -8.108  0.00  0.00    +0.199 A 
ATOM     28  ND1 HIS A   2      55.033  14.313  -8.201  0.00  0.00    -0.227 NA
ENDBRANCH  23  24
ENDBRANCH   1  23
TORSDOF 11
REMARK  Name = ../refined-set-2016/4tmn/4tmn_pocket.pdb
REMARK  240 active torsions:
REMARK  status: ('A' for Active; 'I' for Inactive)
REMARK    1  A    between atoms: _1  and  _3
REMARK    2  A    between atoms: _3  and  _4
REMARK    3  A    between atoms: _3  and  _6
REMARK    4  A    between atoms: _6  and  _7
REMARK    5  A    between atoms: _12  and  _13
REMARK    6  A    between atoms: _15  and  _17
REMARK    7  A    between atoms: _17  and  _18
REMARK    8  A    between atoms: _17  and  _20
REMARK    9  A    between atoms: _20  and  _21
REMARK   10  A    between atoms: _26  and  _27
REMARK   11  A    between atoms: _29  and  _31
REMARK   12  A    between atoms: _31  and  _32
REMARK   13  A    between atoms: _31  and  _34
REMARK   14  A    between atoms: _34  and  _35
REMARK   15  A    between atoms: _40  and  _42
REMARK   16  A    between atoms: _42  and  _43
REMARK   17  A    between atoms: _42  and  _45
REMARK   18  A    between atoms: _45  and  _46
REMARK   19  A    between atoms: _51  and  _53
REMARK   20  A    between atoms: _53  and  _54
REMARK   21  A    between atoms: _57  and  _59
REMARK   22  A    between atoms: _59  and  _60
REMARK   23  A    between atoms: _59  and  _62
REMARK   24  A    between atoms: _62  and  _63
REMARK   25  A    between atoms: _69  and  _71
REMARK   26  A    between atoms: _71  and  _72
REMARK   27  A    between atoms: _71  and  _74
REMARK   28  A    between atoms: _74  and  _75
REMARK   29  A    between atoms: _85  and  _87
REMARK   30  A    between atoms: _87  and  _88
REMARK   31  A    between atoms: _87  and  _90
REMARK   32  A    between atoms: _90  and  _91
REMARK   33  A    between atoms: _96  and  _98
REMARK   34  A    between atoms: _98  and  _99
REMARK   35  A    between atoms: _103  and  _104
REMARK   36  A    between atoms: _103  and  _106
REMARK   37  A    between atoms: _106  and  _107
REMARK   38  A    between atoms: _109  and  _111
REMARK   39  A    between atoms: _111  and  _112
REMARK   40  A    between atoms: _111  and  _114
REMARK   41  A    between atoms: _114  and  _115
REMARK   42  A    between atoms: _115  and  _116
REMARK   43  A    between atoms: _119  and  _121
REMARK   44  A    between atoms: _121  and  _122
REMARK   45  A    between atoms: _121  and  _124
REMARK   46  A    between atoms: _124  and  _125
REMARK   47  A    between atoms: _125  and  _126
REMARK   48  A    between atoms: _128  and  _130
REMARK   49  A    between atoms: _130  and  _131
REMARK   50  A    between atoms: _130  and  _133
REMARK   51  A    between atoms: _136  and  _138
REMARK   52  A    between atoms: _138  and  _139
REMARK   53  A    between atoms: _138  and  _141
REMARK   54  A    between atoms: _141  and  _142
REMARK   55  A    between atoms: _147  and  _148
REMARK   56  A    between atoms: _150  and  _152
REMARK   57  A    between atoms: _152  and  _153
REMARK   58  A    between atoms: _155  and  _157
REMARK   59  A    between atoms: _157  and  _158
REMARK   60  A    between atoms: _157  and  _160
REMARK   61  A    between atoms: _160  and  _161
REMARK   62  A    between atoms: _164  and  _166
REMARK   63  A    between atoms: _166  and  _167
REMARK   64  A    between atoms: _166  and  _169
REMARK   65  A    between atoms: _169  and  _170
REMARK   66  A    between atoms: _176  and  _178
REMARK   67  A    between atoms: _178  and  _179
REMARK   68  A    between atoms: _178  and  _181
REMARK   69  A    between atoms: _181  and  _182
REMARK   70  A    between atoms: _185  and  _187
REMARK   71  A    between atoms: _187  and  _188
REMARK   72  A    between atoms: _190  and  _192
REMARK   73  A    between atoms: _192  and  _193
REMARK   74  A    between atoms: _192  and  _195
REMARK   75  A    between atoms: _195  and  _196
REMARK   76  A    between atoms: _199  and  _201
REMARK   77  A    between atoms: _201  and  _202
REMARK   78  A    between atoms: _201  and  _204
REMARK   79  A    between atoms: _207  and  _209
REMARK   80  A    between atoms: _209  and  _210
REMARK   81  A    between atoms: _209  and  _212
REMARK   82  A    between atoms: _215  and  _217
REMARK   83  A    between atoms: _217  and  _218
REMARK   84  A    between atoms: _221  and  _223
REMARK   85  A    between atoms: _234  and  _237
REMARK   86  A    between atoms: _237  and  _238
REMARK   87  A    between atoms: _238  and  _239
REMARK   88  A    between atoms: _244  and  _247
REMARK   89  A    between atoms: _247  and  _248
REMARK   90  A    between atoms: _253  and  _256
REMARK   91  A    between atoms: _256  and  _257
REMARK   92  A    between atoms: _262  and  _263
REMARK   93  A    between atoms: _271  and  _273
REMARK   94  A    between atoms: _273  and  _274
REMARK   95  A    between atoms: _277  and  _279
REMARK   96  A    between atoms: _279  and  _280
REMARK   97  A    between atoms: _279  and  _282
REMARK   98  A    between atoms: _282  and  _283
REMARK   99  A    between atoms: _286  and  _288
REMARK  100  A    between atoms: _288  and  _289
REMARK  101  A    between atoms: _288  and  _291
REMARK  102  A    between atoms: _291  and  _292
REMARK  103  A    between atoms: _295  and  _297
REMARK  104  A    between atoms: _297  and  _298
REMARK  105  A    between atoms: _300  and  _302
REMARK  106  A    between atoms: _302  and  _303
REMARK  107  A    between atoms: _302  and  _305
REMARK  108  A    between atoms: _305  and  _306
REMARK  109  A    between atoms: _309  and  _311
REMARK  110  A    between atoms: _311  and  _312
REMARK  111  A    between atoms: _311  and  _314
REMARK  112  A    between atoms: _314  and  _315
REMARK  113  A    between atoms: _318  and  _320
REMARK  114  A    between atoms: _320  and  _321
REMARK  115  A    between atoms: _320  and  _323
REMARK  116  A    between atoms: _323  and  _324
REMARK  117  A    between atoms: _329  and  _330
REMARK  118  A    between atoms: _332  and  _334
REMARK  119  A    between atoms: _334  and  _335
REMARK  120  A    between atoms: _334  and  _337
REMARK  121  A    between atoms: _337  and  _338
REMARK  122  A    between atoms: _338  and  _339
REMARK  123  A    between atoms: _344  and  _346
REMARK  124  A    between atoms: _346  and  _347
REMARK  125  A    between atoms: _349  and  _351
REMARK  126  A    between atoms: _351  and  _352
REMARK  127  A    between atoms: _351  and  _354
REMARK  128  A    between atoms: _354  and  _355
REMARK  129  A    between atoms: _360  and  _362
REMARK  130  A    between atoms: _362  and  _363
REMARK  131  A    between atoms: _362  and  _365
REMARK  132  A    between atoms: _365  and  _366
REMARK  133  A    between atoms: _366  and  _367
REMARK  134  A    between atoms: _367  and  _368
REMARK  135  A    between atoms: _368  and  ZN_631
REMARK  136  A    between atoms: _370  and  _372
REMARK  137  A    between atoms: _372  and  _373
REMARK  138  A    between atoms: _372  and  _375
REMARK  139  A    between atoms: _375  and  _376
REMARK  140  A    between atoms: _378  and  _380
REMARK  141  A    between atoms: _380  and  _381
REMARK  142  A    between atoms: _380  and  _383
REMARK  143  A    between atoms: _383  and  _384
REMARK  144  A    between atoms: _387  and  _389
REMARK  145  A    between atoms: _389  and  _390
REMARK  146  A    between atoms: _392  and  _394
REMARK  147  A    between atoms: _394  and  _395
REMARK  148  A    between atoms: _394  and  _397
REMARK  149  A    between atoms: _397  and  _398
REMARK  150  A    between atoms: _401  and  _403
REMARK  151  A    between atoms: _403  and  _404
REMARK  152  A    between atoms: _406  and  _408
REMARK  153  A    between atoms: _408  and  _409
REMARK  154  A    between atoms: _408  and  _411
REMARK  155  A    between atoms: _411  and  _412
REMARK  156  A    between atoms: _412  and  _413
REMARK  157  A    between atoms: _416  and  _418
REMARK  158  A    between atoms: _418  and  _419
REMARK  159  A    between atoms: _418  and  _421
REMARK  160  A    between atoms: _424  and  _426
REMARK  161  A    between atoms: _426  and  _427
REMARK  162  A    between atoms: _426  and  _429
REMARK  163  A    between atoms: _429  and  _430
REMARK  164  A    between atoms: _435  and  _436
REMARK  165  A    between atoms: _438  and  _440
REMARK  166  A    between atoms: _440  and  _441
REMARK  167  A    between atoms: _440  and  _443
REMARK  168  A    between atoms: _443  and  _444
REMARK  169  A    between atoms: _447  and  _449
REMARK  170  A    between atoms: _449  and  _450
REMARK  171  A    between atoms: _449  and  _452
REMARK  172  A    between atoms: _452  and  _453
REMARK  173  A    between atoms: _453  and  _454
REMARK  174  A    between atoms: _454  and  _455
REMARK  175  A    between atoms: _464  and  _466
REMARK  176  A    between atoms: _466  and  _467
REMARK  177  A    between atoms: _466  and  _469
REMARK  178  A    between atoms: _469  and  _470
REMARK  179  A    between atoms: _473  and  _475
REMARK  180  A    between atoms: _475  and  _476
REMARK  181  A    between atoms: _475  and  _478
REMARK  182  A    between atoms: _478  and  _479
REMARK  183  A    between atoms: _484  and  _486
REMARK  184  A    between atoms: _486  and  _487
REMARK  185  A    between atoms: _486  and  _489
REMARK  186  A    between atoms: _492  and  _494
REMARK  187  A    between atoms: _494  and  _495
REMARK  188  A    between atoms: _494  and  _497
REMARK  189  A    between atoms: _497  and  _498
REMARK  190  A    between atoms: _503  and  _505
REMARK  191  A    between atoms: _505  and  _506
REMARK  192  A    between atoms: _505  and  _508
REMARK  193  A    between atoms: _508  and  _509
REMARK  194  A    between atoms: _512  and  _514
REMARK  195  A    between atoms: _514  and  _515
REMARK  196  A    between atoms: _514  and  _517
REMARK  197  A    between atoms: _517  and  _518
REMARK  198  A    between atoms: _520  and  _522
REMARK  199  A    between atoms: _522  and  _523
REMARK  200  A    between atoms: _522  and  _525
REMARK  201  A    between atoms: _525  and  _526
REMARK  202  A    between atoms: _526  and  _527
REMARK  203  A    between atoms: _527  and  _528
REMARK  204  A    between atoms: _537  and  _539
REMARK  205  A    between atoms: _539  and  _540
REMARK  206  A    between atoms: _539  and  _542
REMARK  207  A    between atoms: _542  and  _543
REMARK  208  A    between atoms: _546  and  _548
REMARK  209  A    between atoms: _548  and  _549
REMARK  210  A    between atoms: _548  and  _551
REMARK  211  A    between atoms: _551  and  _552
REMARK  212  A    between atoms: _555  and  _557
REMARK  213  A    between atoms: _557  and  _558
REMARK  214  A    between atoms: _557  and  _560
REMARK  215  A    between atoms: _560  and  _561
REMARK  216  A    between atoms: _564  and  _566
REMARK  217  A    between atoms: _566  and  _567
REMARK  218  A    between atoms: _566  and  _569
REMARK  219  A    between atoms: _569  and  _570
REMARK  220  A    between atoms: _575  and  _576
REMARK  221  A    between atoms: _578  and  _580
REMARK  222  A    between atoms: _580  and  _581
REMARK  223  A    between atoms: _580  and  _583
REMARK  224  A    between atoms: _583  and  _584
REMARK  225  A    between atoms: _586  and  _588
REMARK  226  A    between atoms: _588  and  _589
REMARK  227  A    between atoms: _588  and  _591
REMARK  228  A    between atoms: _591  and  _592
REMARK  229  A    between atoms: _597  and  _598
REMARK  230  A    between atoms: _600  and  _602
REMARK  231  A    between atoms: _602  and  _603
REMARK  232  A    between atoms: _602  and  _605
REMARK  233  A    between atoms: _605  and  _606
REMARK  234  A    between atoms: _612  and  _614
REMARK  235  A    between atoms: _614  and  _615
REMARK  236  A    between atoms: _614  and  _617
REMARK  237  A    between atoms: _620  and  _622
REMARK  238  A    between atoms: _622  and  _623
REMARK  239  A    between atoms: _622  and  _625
REMARK  240  A    between atoms: _625  and  _626
REMARK                            x       y       z     vdW  Elec       q    Type
REMARK                         _______ _______ _______ _____ _____    ______ ____
ROOT
ATOM      1  CA  SER A   1      63.216  16.588  -9.362  0.00  0.00    +0.163 C 
ENDROOT
BRANCH   1   2
ATOM      2  N   SER A   1      63.020  15.241  -9.810  0.00  0.00    -0.237 NA
ATOM      3  H   SER A   1      62.148  14.729  -9.564  0.00  0.00    +0.142 HD
ENDBRANCH   1   2
BRANCH   1   4
ATOM      4  C   SER A   1      64.360  16.499  -8.370  0.00  0.00    +0.227 C 
ATOM      5  O   SER A   1      65.055  17.472  -8.092  0.00  0.00    -0.287 OA
ENDBRANCH   1   4
BRANCH   1   6
ATOM      6  CB  SER A   1      61.973  17.075  -8.632  0.00  0.00    +0.162 C 
BRANCH   6   7
ATOM      7  OG  SER A   1      61.611  16.230  -7.538  0.00  0.00    -0.380 OA
ATOM      8  H   SER A   1      60.800  16.590  -7.099  0.00  0.00    +0.211 HD
ENDBRANCH   6   7
ENDBRANCH   1   6
TORSDOF 4
REMARK  Name = ../refined-set-2016/4tmn/4tmn_pocket.pdb
REMARK  240 active torsions:
REMARK  status: ('A' for Active; 'I' for Inactive)
REMARK    1  A    between atoms: _1  and  _3
REMARK    2  A    between atoms: _3  and  _4
REMARK    3  A    between atoms: _3  and  _6
REMARK    4  A    between atoms: _6  and  _7
REMARK    5  A    between atoms: _12  and  _13
REMARK    6  A    between atoms: _15  and  _17
REMARK    7  A    between atoms: _17  and  _18
REMARK    8  A    between atoms: _17  and  _20
REMARK    9  A    between atoms: _20  and  _21
REMARK   10  A    between atoms: _26  and  _27
REMARK   11  A    between atoms: _29  and  _31
REMARK   12  A    between atoms: _31  and  _32
REMARK   13  A    between atoms: _31  and  _34
REMARK   14  A    between atoms: _34  and  _35
REMARK   15  A    between atoms: _40  and  _42
REMARK   16  A    between atoms: _42  and  _43
REMARK   17  A    between atoms: _42  and  _45
REMARK   18  A    between atoms: _45  and  _46
REMARK   19  A    between atoms: _51  and  _53
REMARK   20  A    between atoms: _53  and  _54
REMARK   21  A    between atoms: _57  and  _59
REMARK   22  A    between atoms: _59  and  _60
REMARK   23  A    between atoms: _59  and  _62
REMARK   24  A    between atoms: _62  and  _63
REMARK   25  A    between atoms: _69  and  _71
REMARK   26  A    between atoms: _71  and  _72
REMARK   27  A    between atoms: _71  and  _74
REMARK   28  A    between atoms: _74  and  _75
REMARK   29  A    between atoms: _85  and  _87
REMARK   30  A    between atoms: _87  and  _88
REMARK   31  A    between atoms: _87  and  _90
REMARK   32  A    between atoms: _90  and  _91
REMARK   33  A    between atoms: _96  and  _98
REMARK   34  A    between atoms: _98  and  _99
REMARK   35  A    between atoms: _103  and  _104
REMARK   36  A    between atoms: _103  and  _106
REMARK   37  A    between atoms: _106  and  _107
REMARK   38  A    between atoms: _109  and  _111
REMARK   39  A    between atoms: _111  and  _112
REMARK   40  A    between atoms: _111  and  _114
REMARK   41  A    between atoms: _114  and  _115
REMARK   42  A    between atoms: _115  and  _116
REMARK   43  A    between atoms: _119  and  _121
REMARK   44  A    between atoms: _121  and  _122
REMARK   45  A    between atoms: _121  and  _124
REMARK   46  A    between atoms: _124  and  _125
REMARK   47  A    between atoms: _125  and  _126
REMARK   48  A    between atoms: _128  and  _130
REMARK   49  A    between atoms: _130  and  _131
REMARK   50  A    between atoms: _130  and  _133
REMARK   51  A    between atoms: _136  and  _138
REMARK   52  A    between atoms: _138  and  _139
REMARK   53  A    between atoms: _138  and  _141
REMARK   54  A    between atoms: _141  and  _142
REMARK   55  A    between atoms: _147  and  _148
REMARK   56  A    between atoms: _150  and  _152
REMARK   57  A    between atoms: _152  and  _153
REMARK   58  A    between atoms: _155  and  _157
REMARK   59  A    between atoms: _157  and  _158
REMARK   60  A    between atoms: _157  and  _160
REMARK   61  A    between atoms: _160  and  _161
REMARK   62  A    between atoms: _164  and  _166
REMARK   63  A    between atoms: _166  and  _167
REMARK   64  A    between atoms: _166  and  _169
REMARK   65  A    between atoms: _169  and  _170
REMARK   66  A    between atoms: _176  and  _178
REMARK   67  A    between atoms: _178  and  _179
REMARK   68  A    between atoms: _178  and  _181
REMARK   69  A    between atoms: _181  and  _182
REMARK   70  A    between atoms: _185  and  _187
REMARK   71  A    between atoms: _187  and  _188
REMARK   72  A    between atoms: _190  and  _192
REMARK   73  A    between atoms: _192  and  _193
REMARK   74  A    between atoms: _192  and  _195
REMARK   75  A    between atoms: _195  and  _196
REMARK   76  A    between atoms: _199  and  _201
REMARK   77  A    between atoms: _201  and  _202
REMARK   78  A    between atoms: _201  and  _204
REMARK   79  A    between atoms: _207  and  _209
REMARK   80  A    between atoms: _209  and  _210
REMARK   81  A    between atoms: _209  and  _212
REMARK   82  A    between atoms: _215  and  _217
REMARK   83  A    between atoms: _217  and  _218
REMARK   84  A    between atoms: _221  and  _223
REMARK   85  A    between atoms: _234  and  _237
REMARK   86  A    between atoms: _237  and  _238
REMARK   87  A    between atoms: _238  and  _239
REMARK   88  A    between atoms: _244  and  _247
REMARK   89  A    between atoms: _247  and  _248
REMARK   90  A    between atoms: _253  and  _256
REMARK   91  A    between atoms: _256  and  _257
REMARK   92  A    between atoms: _262  and  _263
REMARK   93  A    between atoms: _271  and  _273
REMARK   94  A    between atoms: _273  and  _274
REMARK   95  A    between atoms: _277  and  _279
REMARK   96  A    between atoms: _279  and  _280
REMARK   97  A    between atoms: _279  and  _282
REMARK   98  A    between atoms: _282  and  _283
REMARK   99  A    between atoms: _286  and  _288
REMARK  100  A    between atoms: _288  and  _289
REMARK  101  A    between atoms: _288  and  _291
REMARK  102  A    between atoms: _291  and  _292
REMARK  103  A    between atoms: _295  and  _297
REMARK  104  A    between atoms: _297  and  _298
REMARK  105  A    between atoms: _300  and  _302
REMARK  106  A    between atoms: _302  and  _303
REMARK  107  A    between atoms: _302  and  _305
REMARK  108  A    between atoms: _305  and  _306
REMARK  109  A    between atoms: _309  and  _311
REMARK  110  A    between atoms: _311  and  _312
REMARK  111  A    between atoms: _311  and  _314
REMARK  112  A    between atoms: _314  and  _315
REMARK  113  A    between atoms: _318  and  _320
REMARK  114  A    between atoms: _320  and  _321
REMARK  115  A    between atoms: _320  and  _323
REMARK  116  A    between atoms: _323  and  _324
REMARK  117  A    between atoms: _329  and  _330
REMARK  118  A    between atoms: _332  and  _334
REMARK  119  A    between atoms: _334  and  _335
REMARK  120  A    between atoms: _334  and  _337
REMARK  121  A    between atoms: _337  and  _338
REMARK  122  A    between atoms: _338  and  _339
REMARK  123  A    between atoms: _344  and  _346
REMARK  124  A    between atoms: _346  and  _347
REMARK  125  A    between atoms: _349  and  _351
REMARK  126  A    between atoms: _351  and  _352
REMARK  127  A    between atoms: _351  and  _354
REMARK  128  A    between atoms: _354  and  _355
REMARK  129  A    between atoms: _360  and  _362
REMARK  130  A    between atoms: _362  and  _363
REMARK  131  A    between atoms: _362  and  _365
REMARK  132  A    between atoms: _365  and  _366
REMARK  133  A    between atoms: _366  and  _367
REMARK  134  A    between atoms: _367  and  _368
REMARK  135  A    between atoms: _368  and  ZN_631
REMARK  136  A    between atoms: _370  and  _372
REMARK  137  A    between atoms: _372  and  _373
REMARK  138  A    between atoms: _372  and  _375
REMARK  139  A    between atoms: _375  and  _376
REMARK  140  A    between atoms: _378  and  _380
REMARK  141  A    between atoms: _380  and  _381
REMARK  142  A    between atoms: _380  and  _383
REMARK  143  A    between atoms: _383  and  _384
REMARK  144  A    between atoms: _387  and  _389
REMARK  145  A    between atoms: _389  and  _390
REMARK  146  A    between atoms: _392  and  _394
REMARK  147  A    between atoms: _394  and  _395
REMARK  148  A    between atoms: _394  and  _397
REMARK  149  A    between atoms: _397  and  _398
REMARK  150  A    between atoms: _401  and  _403
REMARK  151  A    between atoms: _403  and  _404
REMARK  152  A    between atoms: _406  and  _408
REMARK  153  A    between atoms: _408  and  _409
REMARK  154  A    between atoms: _408  and  _411
REMARK  155  A    between atoms: _411  and  _412
REMARK  156  A    between atoms: _412  and  _413
REMARK  157  A    between atoms: _416  and  _418
REMARK  158  A    between atoms: _418  and  _419
REMARK  159  A    between atoms: _418  and  _421
REMARK  160  A    between atoms: _424  and  _426
REMARK  161  A    between atoms: _426  and  _427
REMARK  162  A    between atoms: _426  and  _429
REMARK  163  A    between atoms: _429  and  _430
REMARK  164  A    between atoms: _435  and  _436
REMARK  165  A    between atoms: _438  and  _440
REMARK  166  A    between atoms: _440  and  _441
REMARK  167  A    between atoms: _440  and  _443
REMARK  168  A    between atoms: _443  and  _444
REMARK  169  A    between atoms: _447  and  _449
REMARK  170  A    between atoms: _449  and  _450
REMARK  171  A    between atoms: _449  and  _452
REMARK  172  A    between atoms: _452  and  _453
REMARK  173  A    between atoms: _453  and  _454
REMARK  174  A    between atoms: _454  and  _455
REMARK  175  A    between atoms: _464  and  _466
REMARK  176  A    between atoms: _466  and  _467
REMARK  177  A    between atoms: _466  and  _469
REMARK  178  A    between atoms: _469  and  _470
REMARK  179  A    between atoms: _473  and  _475
REMARK  180  A    between atoms: _475  and  _476
REMARK  181  A    between atoms: _475  and  _478
REMARK  182  A    between atoms: _478  and  _479
REMARK  183  A    between atoms: _484  and  _486
REMARK  184  A    between atoms: _486  and  _487
REMARK  185  A    between atoms: _486  and  _489
REMARK  186  A    between atoms: _492  and  _494
REMARK  187  A    between atoms: _494  and  _495
REMARK  188  A    between atoms: _494  and  _497
REMARK  189  A    between atoms: _497  and  _498
REMARK  190  A    between atoms: _503  and  _505
REMARK  191  A    between atoms: _505  and  _506
REMARK  192  A    between atoms: _505  and  _508
REMARK  193  A    between atoms: _508  and  _509
REMARK  194  A    between atoms: _512  and  _514
REMARK  195  A    between atoms: _514  and  _515
REMARK  196  A    between atoms: _514  and  _517
REMARK  197  A    between atoms: _517  and  _518
REMARK  198  A    between atoms: _520  and  _522
REMARK  199  A    between atoms: _522  and  _523
REMARK  200  A    between atoms: _522  and  _525
REMARK  201  A    between atoms: _525  and  _526
REMARK  202  A    between atoms: _526  and  _527
REMARK  203  A    between atoms: _527  and  _528
REMARK  204  A    between atoms: _537  and  _539
REMARK  205  A    between atoms: _539  and  _540
REMARK  206  A    between atoms: _539  and  _542
REMARK  207  A    between atoms: _542  and  _543
REMARK  208  A    between atoms: _546  and  _548
REMARK  209  A    between atoms: _548  and  _549
REMARK  210  A    between atoms: _548  and  _551
REMARK  211  A    between atoms: _551  and  _552
REMARK  212  A    between atoms: _555  and  _557
REMARK  213  A    between atoms: _557  and  _558
REMARK  214  A    between atoms: _557  and  _560
REMARK  215  A    between atoms: _560  and  _561
REMARK  216  A    between atoms: _564  and  _566
REMARK  217  A    between atoms: _566  and  _567
REMARK  218  A    between atoms: _566  and  _569
REMARK  219  A    between atoms: _569  and  _570
REMARK  220  A    between atoms: _575  and  _576
REMARK  221  A    between atoms: _578  and  _580
REMARK  222  A    between atoms: _580  and  _581
REMARK  223  A    between atoms: _580  and  _583
REMARK  224  A    between atoms: _583  and  _584
REMARK  225  A    between atoms: _586  and  _588
REMARK  226  A    between atoms: _588  and  _589
REMARK  227  A    between atoms: _588  and  _591
REMARK  228  A    between atoms: _591  and  _592
REMARK  229  A    between atoms: _597  and  _598
REMARK  230  A    between atoms: _600  and  _602
REMARK  231  A    between atoms: _602  and  _603
REMARK  232  A    between atoms: _602  and  _605
REMARK  233  A    between atoms: _605  and  _606
REMARK  234  A    between atoms: _612  and  _614
REMARK  235  A    between atoms: _614  and  _615
REMARK  236  A    between atoms: _614  and  _617
REMARK  237  A    between atoms: _620  and  _622
REMARK  238  A    between atoms: _622  and  _623
REMARK  239  A    between atoms: _622  and  _625
REMARK  240  A    between atoms: _625  and  _626
REMARK                            x       y       z     vdW  Elec       q    Type
REMARK                         _______ _______ _______ _____ _____    ______ ____
ROOT
ATOM      1  CA  THR A   2      47.749  25.565 -17.971  0.00  0.00    +0.176 C 
ENDROOT
BRANCH   1   3
ATOM      2  C   ARG A   1      48.047  26.261 -20.316  0.00  0.00    +0.238 C 
ATOM      3  N   THR A   2      48.400  26.316 -19.039  0.00  0.00    -0.295 N 
ATOM      4  H   THR A   2      49.194  26.936 -18.782  0.00  0.00    +0.150 HD
ATOM      5  O   ARG A   1      47.082  25.622 -20.659  0.00  0.00    -0.274 OA
BRANCH   2   6
ATOM      6  CA  ARG A   1      48.880  27.095 -21.283  0.00  0.00    +0.145 C 
BRANCH   6   7
ATOM      7  N   ARG A   1      48.437  26.892 -22.666  0.00  0.00    -0.238 NA
ATOM      8  H   ARG A   1      47.608  27.424 -22.999  0.00  0.00    +0.142 HD
ENDBRANCH   6   7
BRANCH   6   9
ATOM      9  CB  ARG A   1      48.793  28.584 -20.811  0.00  0.00    +0.030 C 
BRANCH   9  10
ATOM     10  CG  ARG A   1      49.243  29.637 -21.873  0.00  0.00    +0.045 C 
BRANCH  10  11
ATOM     11  CD  ARG A   1      50.768  29.855 -22.084  0.00  0.00    +0.174 C 
BRANCH  11  12
ATOM     12  NE  ARG A   1      51.482  30.274 -20.830  0.00  0.00    -0.265 N 
ATOM     13  HE  ARG A   1      50.898  30.425 -19.983  0.00  0.00    +0.259 HD
ATOM     14  CZ  ARG A   1      52.819  30.474 -20.700  0.00  0.00    +0.342 C 
ATOM     15  NH2 ARG A   1      53.276  30.769 -19.500  0.00  0.00    -0.292 N 
ATOM     16 HH21 ARG A   1      52.619  30.841 -18.697  0.00  0.00    +0.255 HD
ATOM     17 HH22 ARG A   1      54.293  30.930 -19.356  0.00  0.00    +0.255 HD
ATOM     18  NH1 ARG A   1      53.691  30.376 -21.755  0.00  0.00    -0.292 N 
ATOM     19 HH11 ARG A   1      54.707  30.538 -21.606  0.00  0.00    +0.255 HD
ATOM     20 HH12 ARG A   1      53.335  30.140 -22.703  0.00  0.00    +0.255 HD
ENDBRANCH  11  12
ENDBRANCH  10  11
ENDBRANCH   9  10
ENDBRANCH   6   9
ENDBRANCH   2   6
ENDBRANCH   1   3
BRANCH   1  21
ATOM     21  C   THR A   2      46.960  26.467 -17.025  0.00  0.00    +0.243 C 
ATOM     22  O   THR A   2      46.347  26.092 -16.019  0.00  0.00    -0.273 OA
ATOM     23  N   THR A   3      46.969  27.744 -17.356  0.00  0.00    -0.295 N 
ATOM     24  H   THR A   3      47.490  28.053 -18.201  0.00  0.00    +0.150 HD
BRANCH  23  25
ATOM     25  CA  THR A   3      46.273  28.702 -16.568  0.00  0.00    +0.176 C 
BRANCH  25  26
ATOM     26  C   THR A   3      44.789  28.654 -16.980  0.00  0.00    +0.243 C 
ATOM     27  N   LEU A   4      43.888  28.614 -16.018  0.00  0.00    -0.298 N 
ATOM     28  H   LEU A   4      44.202  28.714 -15.032  0.00  0.00    +0.150 HD
ATOM     29  O   THR A   3      44.461  28.638 -18.149  0.00  0.00    -0.273 OA
BRANCH  27  30
ATOM     30  CA  LEU A   4      42.462  28.434 -16.291  0.00  0.00    +0.137 C 
BRANCH  30  31
ATOM     31  C   LEU A   4      41.555  29.551 -15.782  0.00  0.00    +0.227 C 
ATOM     32  O   LEU A   4      41.849  30.149 -14.764  0.00  0.00    -0.286 OA
ENDBRANCH  30  31
BRANCH  30  33
ATOM     33  CB  LEU A   4      41.952  27.076 -15.671  0.00  0.00    +0.028 C 
BRANCH  33  34
ATOM     34  CG  LEU A   4      42.525  25.819 -16.266  0.00  0.00    +0.002 C 
ATOM     35  CD2 LEU A   4      42.180  24.664 -15.325  0.00  0.00    +0.000 C 
ATOM     36  CD1 LEU A   4      42.136  25.715 -17.790  0.00  0.00    +0.000 C 
ENDBRANCH  33  34
ENDBRANCH  30  33
ENDBRANCH  27  30
ENDBRANCH  25  26
BRANCH  25  37
ATOM     37  CB  THR A   3      47.144  29.922 -16.884  0.00  0.00    +0.137 C 
ATOM     38  CG2 THR A   3      46.247  31.045 -17.160  0.00  0.00    +0.034 C 
BRANCH  37  39
ATOM     39  OG1 THR A   3      47.985  30.111 -15.730  0.00  0.00    -0.382 OA
ATOM     40  HG1 THR A   3      48.575  30.892 -15.877  0.00  0.00    +0.210 HD
ENDBRANCH  37  39
ENDBRANCH  25  37
ENDBRANCH  23  25
ENDBRANCH   1  21
BRANCH   1  41
ATOM     41  CB  THR A   2      48.809  24.683 -17.214  0.00  0.00    +0.137 C 
ATOM     42  CG2 THR A   2      49.433  23.552 -18.062  0.00  0.00    +0.034 C 
BRANCH  41  43
ATOM     43  OG1 THR A   2      49.854  25.476 -16.726  0.00  0.00    -0.382 OA
ATOM     44  HG1 THR A   2      50.299  25.935 -17.482  0.00  0.00    +0.210 HD
ENDBRANCH  41  43
ENDBRANCH   1  41
TORSDOF 18
REMARK  Name = ../refined-set-2016/4tmn/4tmn_pocket.pdb
REMARK  240 active torsions:
REMARK  status: ('A' for Active; 'I' for Inactive)
REMARK    1  A    between atoms: _1  and  _3
REMARK    2  A    between atoms: _3  and  _4
REMARK    3  A    between atoms: _3  and  _6
REMARK    4  A    between atoms: _6  and  _7
REMARK    5  A    between atoms: _12  and  _13
REMARK    6  A    between atoms: _15  and  _17
REMARK    7  A    between atoms: _17  and  _18
REMARK    8  A    between atoms: _17  and  _20
REMARK    9  A    between atoms: _20  and  _21
REMARK   10  A    between atoms: _26  and  _27
REMARK   11  A    between atoms: _29  and  _31
REMARK   12  A    between atoms: _31  and  _32
REMARK   13  A    between atoms: _31  and  _34
REMARK   14  A    between atoms: _34  and  _35
REMARK   15  A    between atoms: _40  and  _42
REMARK   16  A    between atoms: _42  and  _43
REMARK   17  A    between atoms: _42  and  _45
REMARK   18  A    between atoms: _45  and  _46
REMARK   19  A    between atoms: _51  and  _53
REMARK   20  A    between atoms: _53  and  _54
REMARK   21  A    between atoms: _57  and  _59
REMARK   22  A    between atoms: _59  and  _60
REMARK   23  A    between atoms: _59  and  _62
REMARK   24  A    between atoms: _62  and  _63
REMARK   25  A    between atoms: _69  and  _71
REMARK   26  A    between atoms: _71  and  _72
REMARK   27  A    between atoms: _71  and  _74
REMARK   28  A    between atoms: _74  and  _75
REMARK   29  A    between atoms: _85  and  _87
REMARK   30  A    between atoms: _87  and  _88
REMARK   31  A    between atoms: _87  and  _90
REMARK   32  A    between atoms: _90  and  _91
REMARK   33  A    between atoms: _96  and  _98
REMARK   34  A    between atoms: _98  and  _99
REMARK   35  A    between atoms: _103  and  _104
REMARK   36  A    between atoms: _103  and  _106
REMARK   37  A    between atoms: _106  and  _107
REMARK   38  A    between atoms: _109  and  _111
REMARK   39  A    between atoms: _111  and  _112
REMARK   40  A    between atoms: _111  and  _114
REMARK   41  A    between atoms: _114  and  _115
REMARK   42  A    between atoms: _115  and  _116
REMARK   43  A    between atoms: _119  and  _121
REMARK   44  A    between atoms: _121  and  _122
REMARK   45  A    between atoms: _121  and  _124
REMARK   46  A    between atoms: _124  and  _125
REMARK   47  A    between atoms: _125  and  _126
REMARK   48  A    between atoms: _128  and  _130
REMARK   49  A    between atoms: _130  and  _131
REMARK   50  A    between atoms: _130  and  _133
REMARK   51  A    between atoms: _136  and  _138
REMARK   52  A    between atoms: _138  and  _139
REMARK   53  A    between atoms: _138  and  _141
REMARK   54  A    between atoms: _141  and  _142
REMARK   55  A    between atoms: _147  and  _148
REMARK   56  A    between atoms: _150  and  _152
REMARK   57  A    between atoms: _152  and  _153
REMARK   58  A    between atoms: _155  and  _157
REMARK   59  A    between atoms: _157  and  _158
REMARK   60  A    between atoms: _157  and  _160
REMARK   61  A    between atoms: _160  and  _161
REMARK   62  A    between atoms: _164  and  _166
REMARK   63  A    between atoms: _166  and  _167
REMARK   64  A    between atoms: _166  and  _169
REMARK   65  A    between atoms: _169  and  _170
REMARK   66  A    between atoms: _176  and  _178
REMARK   67  A    between atoms: _178  and  _179
REMARK   68  A    between atoms: _178  and  _181
REMARK   69  A    between atoms: _181  and  _182
REMARK   70  A    between atoms: _185  and  _187
REMARK   71  A    between atoms: _187  and  _188
REMARK   72  A    between atoms: _190  and  _192
REMARK   73  A    between atoms: _192  and  _193
REMARK   74  A    between atoms: _192  and  _195
REMARK   75  A    between atoms: _195  and  _196
REMARK   76  A    between atoms: _199  and  _201
REMARK   77  A    between atoms: _201  and  _202
REMARK   78  A    between atoms: _201  and  _204
REMARK   79  A    between atoms: _207  and  _209
REMARK   80  A    between atoms: _209  and  _210
REMARK   81  A    between atoms: _209  and  _212
REMARK   82  A    between atoms: _215  and  _217
REMARK   83  A    between atoms: _217  and  _218
REMARK   84  A    between atoms: _221  and  _223
REMARK   85  A    between atoms: _234  and  _237
REMARK   86  A    between atoms: _237  and  _238
REMARK   87  A    between atoms: _238  and  _239
REMARK   88  A    between atoms: _244  and  _247
REMARK   89  A    between atoms: _247  and  _248
REMARK   90  A    between atoms: _253  and  _256
REMARK   91  A    between atoms: _256  and  _257
REMARK   92  A    between atoms: _262  and  _263
REMARK   93  A    between atoms: _271  and  _273
REMARK   94  A    between atoms: _273  and  _274
REMARK   95  A    between atoms: _277  and  _279
REMARK   96  A    between atoms: _279  and  _280
REMARK   97  A    between atoms: _279  and  _282
REMARK   98  A    between atoms: _282  and  _283
REMARK   99  A    between atoms: _286  and  _288
REMARK  100  A    between atoms: _288  and  _289
REMARK  101  A    between atoms: _288  and  _291
REMARK  102  A    between atoms: _291  and  _292
REMARK  103  A    between atoms: _295  and  _297
REMARK  104  A    between atoms: _297  and  _298
REMARK  105  A    between atoms: _300  and  _302
REMARK  106  A    between atoms: _302  and  _303
REMARK  107  A    between atoms: _302  and  _305
REMARK  108  A    between atoms: _305  and  _306
REMARK  109  A    between atoms: _309  and  _311
REMARK  110  A    between atoms: _311  and  _312
REMARK  111  A    between atoms: _311  and  _314
REMARK  112  A    between atoms: _314  and  _315
REMARK  113  A    between atoms: _318  and  _320
REMARK  114  A    between atoms: _320  and  _321
REMARK  115  A    between atoms: _320  and  _323
REMARK  116  A    between atoms: _323  and  _324
REMARK  117  A    between atoms: _329  and  _330
REMARK  118  A    between atoms: _332  and  _334
REMARK  119  A    between atoms: _334  and  _335
REMARK  120  A    between atoms: _334  and  _337
REMARK  121  A    between atoms: _337  and  _338
REMARK  122  A    between atoms: _338  and  _339
REMARK  123  A    between atoms: _344  and  _346
REMARK  124  A    between atoms: _346  and  _347
REMARK  125  A    between atoms: _349  and  _351
REMARK  126  A    between atoms: _351  and  _352
REMARK  127  A    between atoms: _351  and  _354
REMARK  128  A    between atoms: _354  and  _355
REMARK  129  A    between atoms: _360  and  _362
REMARK  130  A    between atoms: _362  and  _363
REMARK  131  A    between atoms: _362  and  _365
REMARK  132  A    between atoms: _365  and  _366
REMARK  133  A    between atoms: _366  and  _367
REMARK  134  A    between atoms: _367  and  _368
REMARK  135  A    between atoms: _368  and  ZN_631
REMARK  136  A    between atoms: _370  and  _372
REMARK  137  A    between atoms: _372  and  _373
REMARK  138  A    between atoms: _372  and  _375
REMARK  139  A    between atoms: _375  and  _376
REMARK  140  A    between atoms: _378  and  _380
REMARK  141  A    between atoms: _380  and  _381
REMARK  142  A    between atoms: _380  and  _383
REMARK  143  A    between atoms: _383  and  _384
REMARK  144  A    between atoms: _387  and  _389
REMARK  145  A    between atoms: _389  and  _390
REMARK  146  A    between atoms: _392  and  _394
REMARK  147  A    between atoms: _394  and  _395
REMARK  148  A    between atoms: _394  and  _397
REMARK  149  A    between atoms: _397  and  _398
REMARK  150  A    between atoms: _401  and  _403
REMARK  151  A    between atoms: _403  and  _404
REMARK  152  A    between atoms: _406  and  _408
REMARK  153  A    between atoms: _408  and  _409
REMARK  154  A    between atoms: _408  and  _411
REMARK  155  A    between atoms: _411  and  _412
REMARK  156  A    between atoms: _412  and  _413
REMARK  157  A    between atoms: _416  and  _418
REMARK  158  A    between atoms: _418  and  _419
REMARK  159  A    between atoms: _418  and  _421
REMARK  160  A    between atoms: _424  and  _426
REMARK  161  A    between atoms: _426  and  _427
REMARK  162  A    between atoms: _426  and  _429
REMARK  163  A    between atoms: _429  and  _430
REMARK  164  A    between atoms: _435  and  _436
REMARK  165  A    between atoms: _438  and  _440
REMARK  166  A    between atoms: _440  and  _441
REMARK  167  A    between atoms: _440  and  _443
REMARK  168  A    between atoms: _443  and  _444
REMARK  169  A    between atoms: _447  and  _449
REMARK  170  A    between atoms: _449  and  _450
REMARK  171  A    between atoms: _449  and  _452
REMARK  172  A    between atoms: _452  and  _453
REMARK  173  A    between atoms: _453  and  _454
REMARK  174  A    between atoms: _454  and  _455
REMARK  175  A    between atoms: _464  and  _466
REMARK  176  A    between atoms: _466  and  _467
REMARK  177  A    between atoms: _466  and  _469
REMARK  178  A    between atoms: _469  and  _470
REMARK  179  A    between atoms: _473  and  _475
REMARK  180  A    between atoms: _475  and  _476
REMARK  181  A    between atoms: _475  and  _478
REMARK  182  A    between atoms: _478  and  _479
REMARK  183  A    between atoms: _484  and  _486
REMARK  184  A    between atoms: _486  and  _487
REMARK  185  A    between atoms: _486  and  _489
REMARK  186  A    between atoms: _492  and  _494
REMARK  187  A    between atoms: _494  and  _495
REMARK  188  A    between atoms: _494  and  _497
REMARK  189  A    between atoms: _497  and  _498
REMARK  190  A    between atoms: _503  and  _505
REMARK  191  A    between atoms: _505  and  _506
REMARK  192  A    between atoms: _505  and  _508
REMARK  193  A    between atoms: _508  and  _509
REMARK  194  A    between atoms: _512  and  _514
REMARK  195  A    between atoms: _514  and  _515
REMARK  196  A    between atoms: _514  and  _517
REMARK  197  A    between atoms: _517  and  _518
REMARK  198  A    between atoms: _520  and  _522
REMARK  199  A    between atoms: _522  and  _523
REMARK  200  A    between atoms: _522  and  _525
REMARK  201  A    between atoms: _525  and  _526
REMARK  202  A    between atoms: _526  and  _527
REMARK  203  A    between atoms: _527  and  _528
REMARK  204  A    between atoms: _537  and  _539
REMARK  205  A    between atoms: _539  and  _540
REMARK  206  A    between atoms: _539  and  _542
REMARK  207  A    between atoms: _542  and  _543
REMARK  208  A    between atoms: _546  and  _548
REMARK  209  A    between atoms: _548  and  _549
REMARK  210  A    between atoms: _548  and  _551
REMARK  211  A    between atoms: _551  and  _552
REMARK  212  A    between atoms: _555  and  _557
REMARK  213  A    between atoms: _557  and  _558
REMARK  214  A    between atoms: _557  and  _560
REMARK  215  A    between atoms: _560  and  _561
REMARK  216  A    between atoms: _564  and  _566
REMARK  217  A    between atoms: _566  and  _567
REMARK  218  A    between atoms: _566  and  _569
REMARK  219  A    between atoms: _569  and  _570
REMARK  220  A    between atoms: _575  and  _576
REMARK  221  A    between atoms: _578  and  _580
REMARK  222  A    between atoms: _580  and  _581
REMARK  223  A    between atoms: _580  and  _583
REMARK  224  A    between atoms: _583  and  _584
REMARK  225  A    between atoms: _586  and  _588
REMARK  226  A    between atoms: _588  and  _589
REMARK  227  A    between atoms: _588  and  _591
REMARK  228  A    between atoms: _591  and  _592
REMARK  229  A    between atoms: _597  and  _598
REMARK  230  A    between atoms: _600  and  _602
REMARK  231  A    between atoms: _602  and  _603
REMARK  232  A    between atoms: _602  and  _605
REMARK  233  A    between atoms: _605  and  _606
REMARK  234  A    between atoms: _612  and  _614
REMARK  235  A    between atoms: _614  and  _615
REMARK  236  A    between atoms: _614  and  _617
REMARK  237  A    between atoms: _620  and  _622
REMARK  238  A    between atoms: _622  and  _623
REMARK  239  A    between atoms: _622  and  _625
REMARK  240  A    between atoms: _625  and  _626
REMARK                            x       y       z     vdW  Elec       q    Type
REMARK                         _______ _______ _______ _____ _____    ______ ____
ROOT
ATOM      1  CA  TYR A   1      44.909  23.004 -22.431  0.00  0.00    +0.149 C 
ENDROOT
BRANCH   1   2
ATOM      2  C   TYR A   1      46.287  22.297 -22.525  0.00  0.00    +0.239 C 
ATOM      3  N   SER A   2      47.381  23.032 -22.123  0.00  0.00    -0.296 N 
ATOM      4  H   SER A   2      47.205  23.993 -21.765  0.00  0.00    +0.150 HD
ATOM      5  O   TYR A   1      46.383  21.152 -22.973  0.00  0.00    -0.274 OA
BRANCH   3   6
ATOM      6  CA  SER A   2      48.765  22.573 -22.158  0.00  0.00    +0.166 C 
BRANCH   6   7
ATOM      7  C   SER A   2      49.174  22.200 -23.620  0.00  0.00    +0.229 C 
ATOM      8  O   SER A   2      48.546  22.624 -24.626  0.00  0.00    -0.286 OA
ENDBRANCH   6   7
BRANCH   6   9
ATOM      9  CB  SER A   2      48.937  21.415 -21.193  0.00  0.00    +0.165 C 
BRANCH   9  10
ATOM     10  OG  SER A   2      50.309  21.128 -21.097  0.00  0.00    -0.380 OA
ATOM     11  H   SER A   2      50.444  20.373 -20.471  0.00  0.00    +0.211 HD
ENDBRANCH   9  10
ENDBRANCH   6   9
ENDBRANCH   3   6
ENDBRANCH   1   2
BRANCH   1  12
ATOM     12  N   TYR A   1      44.262  23.003 -23.727  0.00  0.00    -0.238 NA
ATOM     13  H   TYR A   1      43.544  22.278 -23.928  0.00  0.00    +0.142 HD
ENDBRANCH   1  12
BRANCH   1  14
ATOM     14  CB  TYR A   1      44.019  22.229 -21.512  0.00  0.00    +0.053 C 
BRANCH  14  15
ATOM     15  CG  TYR A   1      44.655  22.088 -20.183  0.00  0.00    -0.020 A 
ATOM     16  CD2 TYR A   1      44.582  23.124 -19.222  0.00  0.00    -0.001 A 
ATOM     17  CE2 TYR A   1      45.127  22.944 -17.974  0.00  0.00    +0.036 A 
ATOM     18  CZ  TYR A   1      45.840  21.763 -17.680  0.00  0.00    +0.134 A 
ATOM     19  CE1 TYR A   1      45.947  20.748 -18.616  0.00  0.00    +0.036 A 
ATOM     20  CD1 TYR A   1      45.348  20.912 -19.869  0.00  0.00    -0.001 A 
BRANCH  18  21
ATOM     21  OH  TYR A   1      46.431  21.525 -16.435  0.00  0.00    -0.506 OA
ATOM     22  HH  TYR A   1      46.294  22.312 -15.850  0.00  0.00    +0.292 HD
ENDBRANCH  18  21
ENDBRANCH  14  15
ENDBRANCH   1  14
TORSDOF 9
REMARK  Name = ../refined-set-2016/4tmn/4tmn_pocket.pdb
REMARK  240 active torsions:
REMARK  status: ('A' for Active; 'I' for Inactive)
REMARK    1  A    between atoms: _1  and  _3
REMARK    2  A    between atoms: _3  and  _4
REMARK    3  A    between atoms: _3  and  _6
REMARK    4  A    between atoms: _6  and  _7
REMARK    5  A    between atoms: _12  and  _13
REMARK    6  A    between atoms: _15  and  _17
REMARK    7  A    between atoms: _17  and  _18
REMARK    8  A    between atoms: _17  and  _20
REMARK    9  A    between atoms: _20  and  _21
REMARK   10  A    between atoms: _26  and  _27
REMARK   11  A    between atoms: _29  and  _31
REMARK   12  A    between atoms: _31  and  _32
REMARK   13  A    between atoms: _31  and  _34
REMARK   14  A    between atoms: _34  and  _35
REMARK   15  A    between atoms: _40  and  _42
REMARK   16  A    between atoms: _42  and  _43
REMARK   17  A    between atoms: _42  and  _45
REMARK   18  A    between atoms: _45  and  _46
REMARK   19  A    between atoms: _51  and  _53
REMARK   20  A    between atoms: _53  and  _54
REMARK   21  A    between atoms: _57  and  _59
REMARK   22  A    between atoms: _59  and  _60
REMARK   23  A    between atoms: _59  and  _62
REMARK   24  A    between atoms: _62  and  _63
REMARK   25  A    between atoms: _69  and  _71
REMARK   26  A    between atoms: _71  and  _72
REMARK   27  A    between atoms: _71  and  _74
REMARK   28  A    between atoms: _74  and  _75
REMARK   29  A    between atoms: _85  and  _87
REMARK   30  A    between atoms: _87  and  _88
REMARK   31  A    between atoms: _87  and  _90
REMARK   32  A    between atoms: _90  and  _91
REMARK   33  A    between atoms: _96  and  _98
REMARK   34  A    between atoms: _98  and  _99
REMARK   35  A    between atoms: _103  and  _104
REMARK   36  A    between atoms: _103  and  _106
REMARK   37  A    between atoms: _106  and  _107
REMARK   38  A    between atoms: _109  and  _111
REMARK   39  A    between atoms: _111  and  _112
REMARK   40  A    between atoms: _111  and  _114
REMARK   41  A    between atoms: _114  and  _115
REMARK   42  A    between atoms: _115  and  _116
REMARK   43  A    between atoms: _119  and  _121
REMARK   44  A    between atoms: _121  and  _122
REMARK   45  A    between atoms: _121  and  _124
REMARK   46  A    between atoms: _124  and  _125
REMARK   47  A    between atoms: _125  and  _126
REMARK   48  A    between atoms: _128  and  _130
REMARK   49  A    between atoms: _130  and  _131
REMARK   50  A    between atoms: _130  and  _133
REMARK   51  A    between atoms: _136  and  _138
REMARK   52  A    between atoms: _138  and  _139
REMARK   53  A    between atoms: _138  and  _141
REMARK   54  A    between atoms: _141  and  _142
REMARK   55  A    between atoms: _147  and  _148
REMARK   56  A    between atoms: _150  and  _152
REMARK   57  A    between atoms: _152  and  _153
REMARK   58  A    between atoms: _155  and  _157
REMARK   59  A    between atoms: _157  and  _158
REMARK   60  A    between atoms: _157  and  _160
REMARK   61  A    between atoms: _160  and  _161
REMARK   62  A    between atoms: _164  and  _166
REMARK   63  A    between atoms: _166  and  _167
REMARK   64  A    between atoms: _166  and  _169
REMARK   65  A    between atoms: _169  and  _170
REMARK   66  A    between atoms: _176  and  _178
REMARK   67  A    between atoms: _178  and  _179
REMARK   68  A    between atoms: _178  and  _181
REMARK   69  A    between atoms: _181  and  _182
REMARK   70  A    between atoms: _185  and  _187
REMARK   71  A    between atoms: _187  and  _188
REMARK   72  A    between atoms: _190  and  _192
REMARK   73  A    between atoms: _192  and  _193
REMARK   74  A    between atoms: _192  and  _195
REMARK   75  A    between atoms: _195  and  _196
REMARK   76  A    between atoms: _199  and  _201
REMARK   77  A    between atoms: _201  and  _202
REMARK   78  A    between atoms: _201  and  _204
REMARK   79  A    between atoms: _207  and  _209
REMARK   80  A    between atoms: _209  and  _210
REMARK   81  A    between atoms: _209  and  _212
REMARK   82  A    between atoms: _215  and  _217
REMARK   83  A    between atoms: _217  and  _218
REMARK   84  A    between atoms: _221  and  _223
REMARK   85  A    between atoms: _234  and  _237
REMARK   86  A    between atoms: _237  and  _238
REMARK   87  A    between atoms: _238  and  _239
REMARK   88  A    between atoms: _244  and  _247
REMARK   89  A    between atoms: _247  and  _248
REMARK   90  A    between atoms: _253  and  _256
REMARK   91  A    between atoms: _256  and  _257
REMARK   92  A    between atoms: _262  and  _263
REMARK   93  A    between atoms: _271  and  _273
REMARK   94  A    between atoms: _273  and  _274
REMARK   95  A    between atoms: _277  and  _279
REMARK   96  A    between atoms: _279  and  _280
REMARK   97  A    between atoms: _279  and  _282
REMARK   98  A    between atoms: _282  and  _283
REMARK   99  A    between atoms: _286  and  _288
REMARK  100  A    between atoms: _288  and  _289
REMARK  101  A    between atoms: _288  and  _291
REMARK  102  A    between atoms: _291  and  _292
REMARK  103  A    between atoms: _295  and  _297
REMARK  104  A    between atoms: _297  and  _298
REMARK  105  A    between atoms: _300  and  _302
REMARK  106  A    between atoms: _302  and  _303
REMARK  107  A    between atoms: _302  and  _305
REMARK  108  A    between atoms: _305  and  _306
REMARK  109  A    between atoms: _309  and  _311
REMARK  110  A    between atoms: _311  and  _312
REMARK  111  A    between atoms: _311  and  _314
REMARK  112  A    between atoms: _314  and  _315
REMARK  113  A    between atoms: _318  and  _320
REMARK  114  A    between atoms: _320  and  _321
REMARK  115  A    between atoms: _320  and  _323
REMARK  116  A    between atoms: _323  and  _324
REMARK  117  A    between atoms: _329  and  _330
REMARK  118  A    between atoms: _332  and  _334
REMARK  119  A    between atoms: _334  and  _335
REMARK  120  A    between atoms: _334  and  _337
REMARK  121  A    between atoms: _337  and  _338
REMARK  122  A    between atoms: _338  and  _339
REMARK  123  A    between atoms: _344  and  _346
REMARK  124  A    between atoms: _346  and  _347
REMARK  125  A    between atoms: _349  and  _351
REMARK  126  A    between atoms: _351  and  _352
REMARK  127  A    between atoms: _351  and  _354
REMARK  128  A    between atoms: _354  and  _355
REMARK  129  A    between atoms: _360  and  _362
REMARK  130  A    between atoms: _362  and  _363
REMARK  131  A    between atoms: _362  and  _365
REMARK  132  A    between atoms: _365  and  _366
REMARK  133  A    between atoms: _366  and  _367
REMARK  134  A    between atoms: _367  and  _368
REMARK  135  A    between atoms: _368  and  ZN_631
REMARK  136  A    between atoms: _370  and  _372
REMARK  137  A    between atoms: _372  and  _373
REMARK  138  A    between atoms: _372  and  _375
REMARK  139  A    between atoms: _375  and  _376
REMARK  140  A    between atoms: _378  and  _380
REMARK  141  A    between atoms: _380  and  _381
REMARK  142  A    between atoms: _380  and  _383
REMARK  143  A    between atoms: _383  and  _384
REMARK  144  A    between atoms: _387  and  _389
REMARK  145  A    between atoms: _389  and  _390
REMARK  146  A    between atoms: _392  and  _394
REMARK  147  A    between atoms: _394  and  _395
REMARK  148  A    between atoms: _394  and  _397
REMARK  149  A    between atoms: _397  and  _398
REMARK  150  A    between atoms: _401  and  _403
REMARK  151  A    between atoms: _403  and  _404
REMARK  152  A    between atoms: _406  and  _408
REMARK  153  A    between atoms: _408  and  _409
REMARK  154  A    between atoms: _408  and  _411
REMARK  155  A    between atoms: _411  and  _412
REMARK  156  A    between atoms: _412  and  _413
REMARK  157  A    between atoms: _416  and  _418
REMARK  158  A    between atoms: _418  and  _419
REMARK  159  A    between atoms: _418  and  _421
REMARK  160  A    between atoms: _424  and  _426
REMARK  161  A    between atoms: _426  and  _427
REMARK  162  A    between atoms: _426  and  _429
REMARK  163  A    between atoms: _429  and  _430
REMARK  164  A    between atoms: _435  and  _436
REMARK  165  A    between atoms: _438  and  _440
REMARK  166  A    between atoms: _440  and  _441
REMARK  167  A    between atoms: _440  and  _443
REMARK  168  A    between atoms: _443  and  _444
REMARK  169  A    between atoms: _447  and  _449
REMARK  170  A    between atoms: _449  and  _450
REMARK  171  A    between atoms: _449  and  _452
REMARK  172  A    between atoms: _452  and  _453
REMARK  173  A    between atoms: _453  and  _454
REMARK  174  A    between atoms: _454  and  _455
REMARK  175  A    between atoms: _464  and  _466
REMARK  176  A    between atoms: _466  and  _467
REMARK  177  A    between atoms: _466  and  _469
REMARK  178  A    between atoms: _469  and  _470
REMARK  179  A    between atoms: _473  and  _475
REMARK  180  A    between atoms: _475  and  _476
REMARK  181  A    between atoms: _475  and  _478
REMARK  182  A    between atoms: _478  and  _479
REMARK  183  A    between atoms: _484  and  _486
REMARK  184  A    between atoms: _486  and  _487
REMARK  185  A    between atoms: _486  and  _489
REMARK  186  A    between atoms: _492  and  _494
REMARK  187  A    between atoms: _494  and  _495
REMARK  188  A    between atoms: _494  and  _497
REMARK  189  A    between atoms: _497  and  _498
REMARK  190  A    between atoms: _503  and  _505
REMARK  191  A    between atoms: _505  and  _506
REMARK  192  A    between atoms: _505  and  _508
REMARK  193  A    between atoms: _508  and  _509
REMARK  194  A    between atoms: _512  and  _514
REMARK  195  A    between atoms: _514  and  _515
REMARK  196  A    between atoms: _514  and  _517
REMARK  197  A    between atoms: _517  and  _518
REMARK  198  A    between atoms: _520  and  _522
REMARK  199  A    between atoms: _522  and  _523
REMARK  200  A    between atoms: _522  and  _525
REMARK  201  A    between atoms: _525  and  _526
REMARK  202  A    between atoms: _526  and  _527
REMARK  203  A    between atoms: _527  and  _528
REMARK  204  A    between atoms: _537  and  _539
REMARK  205  A    between atoms: _539  and  _540
REMARK  206  A    between atoms: _539  and  _542
REMARK  207  A    between atoms: _542  and  _543
REMARK  208  A    between atoms: _546  and  _548
REMARK  209  A    between atoms: _548  and  _549
REMARK  210  A    between atoms: _548  and  _551
REMARK  211  A    between atoms: _551  and  _552
REMARK  212  A    between atoms: _555  and  _557
REMARK  213  A    between atoms: _557  and  _558
REMARK  214  A    between atoms: _557  and  _560
REMARK  215  A    between atoms: _560  and  _561
REMARK  216  A    between atoms: _564  and  _566
REMARK  217  A    between atoms: _566  and  _567
REMARK  218  A    between atoms: _566  and  _569
REMARK  219  A    between atoms: _569  and  _570
REMARK  220  A    between atoms: _575  and  _576
REMARK  221  A    between atoms: _578  and  _580
REMARK  222  A    between atoms: _580  and  _581
REMARK  223  A    between atoms: _580  and  _583
REMARK  224  A    between atoms: _583  and  _584
REMARK  225  A    between atoms: _586  and  _588
REMARK  226  A    between atoms: _588  and  _589
REMARK  227  A    between atoms: _588  and  _591
REMARK  228  A    between atoms: _591  and  _592
REMARK  229  A    between atoms: _597  and  _598
REMARK  230  A    between atoms: _600  and  _602
REMARK  231  A    between atoms: _602  and  _603
REMARK  232  A    between atoms: _602  and  _605
REMARK  233  A    between atoms: _605  and  _606
REMARK  234  A    between atoms: _612  and  _614
REMARK  235  A    between atoms: _614  and  _615
REMARK  236  A    between atoms: _614  and  _617
REMARK  237  A    between atoms: _620  and  _622
REMARK  238  A    between atoms: _622  and  _623
REMARK  239  A    between atoms: _622  and  _625
REMARK  240  A    between atoms: _625  and  _626
REMARK                            x       y       z     vdW  Elec       q    Type
REMARK                         _______ _______ _______ _____ _____    ______ ____
ROOT
ATOM      1  CG  TYR A   1      46.973  17.392 -20.995  0.00  0.00    -0.020 A 
ATOM      2  CD2 TYR A   1      47.927  17.018 -20.057  0.00  0.00    -0.001 A 
ATOM      3  CE2 TYR A   1      47.521  16.555 -18.796  0.00  0.00    +0.036 A 
ATOM      4  CZ  TYR A   1      46.172  16.479 -18.495  0.00  0.00    +0.134 A 
ATOM      5  CE1 TYR A   1      45.206  16.884 -19.413  0.00  0.00    +0.036 A 
ATOM      6  CD1 TYR A   1      45.618  17.349 -20.658  0.00  0.00    -0.001 A 
ENDROOT
BRANCH   4   7
ATOM      7  OH  TYR A   1      45.764  16.039 -17.263  0.00  0.00    -0.506 OA
ATOM      8  HH  TYR A   1      46.556  15.788 -16.725  0.00  0.00    +0.292 HD
ENDBRANCH   4   7
BRANCH   1   9
ATOM      9  CB  TYR A   1      47.370  17.841 -22.296  0.00  0.00    +0.051 C 
BRANCH   9  10
ATOM     10  CA  TYR A   1      48.005  16.697 -23.046  0.00  0.00    +0.137 C 
BRANCH  10  11
ATOM     11  N   TYR A   1      48.567  17.242 -24.256  0.00  0.00    -0.239 NA
ATOM     12  H   TYR A   1      48.159  18.121 -24.634  0.00  0.00    +0.142 HD
ENDBRANCH  10  11
BRANCH  10  13
ATOM     13  C   TYR A   1      46.976  15.627 -23.402  0.00  0.00    +0.224 C 
ATOM     14  O   TYR A   1      45.970  15.855 -24.133  0.00  0.00    -0.287 OA
ENDBRANCH  10  13
ENDBRANCH   9  10
ENDBRANCH   1   9
TORSDOF 5
REMARK  Name = ../refined-set-2016/4tmn/4tmn_pocket.pdb
REMARK  240 active torsions:
REMARK  status: ('A' for Active; 'I' for Inactive)
REMARK    1  A    between atoms: _1  and  _3
REMARK    2  A    between atoms: _3  and  _4
REMARK    3  A    between atoms: _3  and  _6
REMARK    4  A    between atoms: _6  and  _7
REMARK    5  A    between atoms: _12  and  _13
REMARK    6  A    between atoms: _15  and  _17
REMARK    7  A    between atoms: _17  and  _18
REMARK    8  A    between atoms: _17  and  _20
REMARK    9  A    between atoms: _20  and  _21
REMARK   10  A    between atoms: _26  and  _27
REMARK   11  A    between atoms: _29  and  _31
REMARK   12  A    between atoms: _31  and  _32
REMARK   13  A    between atoms: _31  and  _34
REMARK   14  A    between atoms: _34  and  _35
REMARK   15  A    between atoms: _40  and  _42
REMARK   16  A    between atoms: _42  and  _43
REMARK   17  A    between atoms: _42  and  _45
REMARK   18  A    between atoms: _45  and  _46
REMARK   19  A    between atoms: _51  and  _53
REMARK   20  A    between atoms: _53  and  _54
REMARK   21  A    between atoms: _57  and  _59
REMARK   22  A    between atoms: _59  and  _60
REMARK   23  A    between atoms: _59  and  _62
REMARK   24  A    between atoms: _62  and  _63
REMARK   25  A    between atoms: _69  and  _71
REMARK   26  A    between atoms: _71  and  _72
REMARK   27  A    between atoms: _71  and  _74
REMARK   28  A    between atoms: _74  and  _75
REMARK   29  A    between atoms: _85  and  _87
REMARK   30  A    between atoms: _87  and  _88
REMARK   31  A    between atoms: _87  and  _90
REMARK   32  A    between atoms: _90  and  _91
REMARK   33  A    between atoms: _96  and  _98
REMARK   34  A    between atoms: _98  and  _99
REMARK   35  A    between atoms: _103  and  _104
REMARK   36  A    between atoms: _103  and  _106
REMARK   37  A    between atoms: _106  and  _107
REMARK   38  A    between atoms: _109  and  _111
REMARK   39  A    between atoms: _111  and  _112
REMARK   40  A    between atoms: _111  and  _114
REMARK   41  A    between atoms: _114  and  _115
REMARK   42  A    between atoms: _115  and  _116
REMARK   43  A    between atoms: _119  and  _121
REMARK   44  A    between atoms: _121  and  _122
REMARK   45  A    between atoms: _121  and  _124
REMARK   46  A    between atoms: _124  and  _125
REMARK   47  A    between atoms: _125  and  _126
REMARK   48  A    between atoms: _128  and  _130
REMARK   49  A    between atoms: _130  and  _131
REMARK   50  A    between atoms: _130  and  _133
REMARK   51  A    between atoms: _136  and  _138
REMARK   52  A    between atoms: _138  and  _139
REMARK   53  A    between atoms: _138  and  _141
REMARK   54  A    between atoms: _141  and  _142
REMARK   55  A    between atoms: _147  and  _148
REMARK   56  A    between atoms: _150  and  _152
REMARK   57  A    between atoms: _152  and  _153
REMARK   58  A    between atoms: _155  and  _157
REMARK   59  A    between atoms: _157  and  _158
REMARK   60  A    between atoms: _157  and  _160
REMARK   61  A    between atoms: _160  and  _161
REMARK   62  A    between atoms: _164  and  _166
REMARK   63  A    between atoms: _166  and  _167
REMARK   64  A    between atoms: _166  and  _169
REMARK   65  A    between atoms: _169  and  _170
REMARK   66  A    between atoms: _176  and  _178
REMARK   67  A    between atoms: _178  and  _179
REMARK   68  A    between atoms: _178  and  _181
REMARK   69  A    between atoms: _181  and  _182
REMARK   70  A    between atoms: _185  and  _187
REMARK   71  A    between atoms: _187  and  _188
REMARK   72  A    between atoms: _190  and  _192
REMARK   73  A    between atoms: _192  and  _193
REMARK   74  A    between atoms: _192  and  _195
REMARK   75  A    between atoms: _195  and  _196
REMARK   76  A    between atoms: _199  and  _201
REMARK   77  A    between atoms: _201  and  _202
REMARK   78  A    between atoms: _201  and  _204
REMARK   79  A    between atoms: _207  and  _209
REMARK   80  A    between atoms: _209  and  _210
REMARK   81  A    between atoms: _209  and  _212
REMARK   82  A    between atoms: _215  and  _217
REMARK   83  A    between atoms: _217  and  _218
REMARK   84  A    between atoms: _221  and  _223
REMARK   85  A    between atoms: _234  and  _237
REMARK   86  A    between atoms: _237  and  _238
REMARK   87  A    between atoms: _238  and  _239
REMARK   88  A    between atoms: _244  and  _247
REMARK   89  A    between atoms: _247  and  _248
REMARK   90  A    between atoms: _253  and  _256
REMARK   91  A    between atoms: _256  and  _257
REMARK   92  A    between atoms: _262  and  _263
REMARK   93  A    between atoms: _271  and  _273
REMARK   94  A    between atoms: _273  and  _274
REMARK   95  A    between atoms: _277  and  _279
REMARK   96  A    between atoms: _279  and  _280
REMARK   97  A    between atoms: _279  and  _282
REMARK   98  A    between atoms: _282  and  _283
REMARK   99  A    between atoms: _286  and  _288
REMARK  100  A    between atoms: _288  and  _289
REMARK  101  A    between atoms: _288  and  _291
REMARK  102  A    between atoms: _291  and  _292
REMARK  103  A    between atoms: _295  and  _297
REMARK  104  A    between atoms: _297  and  _298
REMARK  105  A    between atoms: _300  and  _302
REMARK  106  A    between atoms: _302  and  _303
REMARK  107  A    between atoms: _302  and  _305
REMARK  108  A    between atoms: _305  and  _306
REMARK  109  A    between atoms: _309  and  _311
REMARK  110  A    between atoms: _311  and  _312
REMARK  111  A    between atoms: _311  and  _314
REMARK  112  A    between atoms: _314  and  _315
REMARK  113  A    between atoms: _318  and  _320
REMARK  114  A    between atoms: _320  and  _321
REMARK  115  A    between atoms: _320  and  _323
REMARK  116  A    between atoms: _323  and  _324
REMARK  117  A    between atoms: _329  and  _330
REMARK  118  A    between atoms: _332  and  _334
REMARK  119  A    between atoms: _334  and  _335
REMARK  120  A    between atoms: _334  and  _337
REMARK  121  A    between atoms: _337  and  _338
REMARK  122  A    between atoms: _338  and  _339
REMARK  123  A    between atoms: _344  and  _346
REMARK  124  A    between atoms: _346  and  _347
REMARK  125  A    between atoms: _349  and  _351
REMARK  126  A    between atoms: _351  and  _352
REMARK  127  A    between atoms: _351  and  _354
REMARK  128  A    between atoms: _354  and  _355
REMARK  129  A    between atoms: _360  and  _362
REMARK  130  A    between atoms: _362  and  _363
REMARK  131  A    between atoms: _362  and  _365
REMARK  132  A    between atoms: _365  and  _366
REMARK  133  A    between atoms: _366  and  _367
REMARK  134  A    between atoms: _367  and  _368
REMARK  135  A    between atoms: _368  and  ZN_631
REMARK  136  A    between atoms: _370  and  _372
REMARK  137  A    between atoms: _372  and  _373
REMARK  138  A    between atoms: _372  and  _375
REMARK  139  A    between atoms: _375  and  _376
REMARK  140  A    between atoms: _378  and  _380
REMARK  141  A    between atoms: _380  and  _381
REMARK  142  A    between atoms: _380  and  _383
REMARK  143  A    between atoms: _383  and  _384
REMARK  144  A    between atoms: _387  and  _389
REMARK  145  A    between atoms: _389  and  _390
REMARK  146  A    between atoms: _392  and  _394
REMARK  147  A    between atoms: _394  and  _395
REMARK  148  A    between atoms: _394  and  _397
REMARK  149  A    between atoms: _397  and  _398
REMARK  150  A    between atoms: _401  and  _403
REMARK  151  A    between atoms: _403  and  _404
REMARK  152  A    between atoms: _406  and  _408
REMARK  153  A    between atoms: _408  and  _409
REMARK  154  A    between atoms: _408  and  _411
REMARK  155  A    between atoms: _411  and  _412
REMARK  156  A    between atoms: _412  and  _413
REMARK  157  A    between atoms: _416  and  _418
REMARK  158  A    between atoms: _418  and  _419
REMARK  159  A    between atoms: _418  and  _421
REMARK  160  A    between atoms: _424  and  _426
REMARK  161  A    between atoms: _426  and  _427
REMARK  162  A    between atoms: _426  and  _429
REMARK  163  A    between atoms: _429  and  _430
REMARK  164  A    between atoms: _435  and  _436
REMARK  165  A    between atoms: _438  and  _440
REMARK  166  A    between atoms: _440  and  _441
REMARK  167  A    between atoms: _440  and  _443
REMARK  168  A    between atoms: _443  and  _444
REMARK  169  A    between atoms: _447  and  _449
REMARK  170  A    between atoms: _449  and  _450
REMARK  171  A    between atoms: _449  and  _452
REMARK  172  A    between atoms: _452  and  _453
REMARK  173  A    between atoms: _453  and  _454
REMARK  174  A    between atoms: _454  and  _455
REMARK  175  A    between atoms: _464  and  _466
REMARK  176  A    between atoms: _466  and  _467
REMARK  177  A    between atoms: _466  and  _469
REMARK  178  A    between atoms: _469  and  _470
REMARK  179  A    between atoms: _473  and  _475
REMARK  180  A    between atoms: _475  and  _476
REMARK  181  A    between atoms: _475  and  _478
REMARK  182  A    between atoms: _478  and  _479
REMARK  183  A    between atoms: _484  and  _486
REMARK  184  A    between atoms: _486  and  _487
REMARK  185  A    between atoms: _486  and  _489
REMARK  186  A    between atoms: _492  and  _494
REMARK  187  A    between atoms: _494  and  _495
REMARK  188  A    between atoms: _494  and  _497
REMARK  189  A    between atoms: _497  and  _498
REMARK  190  A    between atoms: _503  and  _505
REMARK  191  A    between atoms: _505  and  _506
REMARK  192  A    between atoms: _505  and  _508
REMARK  193  A    between atoms: _508  and  _509
REMARK  194  A    between atoms: _512  and  _514
REMARK  195  A    between atoms: _514  and  _515
REMARK  196  A    between atoms: _514  and  _517
REMARK  197  A    between atoms: _517  and  _518
REMARK  198  A    between atoms: _520  and  _522
REMARK  199  A    between atoms: _522  and  _523
REMARK  200  A    between atoms: _522  and  _525
REMARK  201  A    between atoms: _525  and  _526
REMARK  202  A    between atoms: _526  and  _527
REMARK  203  A    between atoms: _527  and  _528
REMARK  204  A    between atoms: _537  and  _539
REMARK  205  A    between atoms: _539  and  _540
REMARK  206  A    between atoms: _539  and  _542
REMARK  207  A    between atoms: _542  and  _543
REMARK  208  A    between atoms: _546  and  _548
REMARK  209  A    between atoms: _548  and  _549
REMARK  210  A    between atoms: _548  and  _551
REMARK  211  A    between atoms: _551  and  _552
REMARK  212  A    between atoms: _555  and  _557
REMARK  213  A    between atoms: _557  and  _558
REMARK  214  A    between atoms: _557  and  _560
REMARK  215  A    between atoms: _560  and  _561
REMARK  216  A    between atoms: _564  and  _566
REMARK  217  A    between atoms: _566  and  _567
REMARK  218  A    between atoms: _566  and  _569
REMARK  219  A    between atoms: _569  and  _570
REMARK  220  A    between atoms: _575  and  _576
REMARK  221  A    between atoms: _578  and  _580
REMARK  222  A    between atoms: _580  and  _581
REMARK  223  A    between atoms: _580  and  _583
REMARK  224  A    between atoms: _583  and  _584
REMARK  225  A    between atoms: _586  and  _588
REMARK  226  A    between atoms: _588  and  _589
REMARK  227  A    between atoms: _588  and  _591
REMARK  228  A    between atoms: _591  and  _592
REMARK  229  A    between atoms: _597  and  _598
REMARK  230  A    between atoms: _600  and  _602
REMARK  231  A    between atoms: _602  and  _603
REMARK  232  A    between atoms: _602  and  _605
REMARK  233  A    between atoms: _605  and  _606
REMARK  234  A    between atoms: _612  and  _614
REMARK  235  A    between atoms: _614  and  _615
REMARK  236  A    between atoms: _614  and  _617
REMARK  237  A    between atoms: _620  and  _622
REMARK  238  A    between atoms: _622  and  _623
REMARK  239  A    between atoms: _622  and  _625
REMARK  240  A    between atoms: _625  and  _626
REMARK                            x       y       z     vdW  Elec       q    Type
REMARK                         _______ _______ _______ _____ _____    ______ ____
ROOT
ATOM      1  CB  PHE A   1      40.246  16.357 -15.432  0.00  0.00    +0.051 C 
ENDROOT
BRANCH   1   2
ATOM      2  CG  PHE A   1      41.211  17.513 -15.623  0.00  0.00    -0.020 A 
ATOM      3  CD2 PHE A   1      41.144  18.626 -14.790  0.00  0.00    -0.004 A 
ATOM      4  CE2 PHE A   1      42.047  19.690 -14.919  0.00  0.00    -0.000 A 
ATOM      5  CZ  PHE A   1      43.035  19.654 -15.913  0.00  0.00    -0.000 A 
ATOM      6  CE1 PHE A   1      43.117  18.561 -16.768  0.00  0.00    -0.000 A 
ATOM      7  CD1 PHE A   1      42.197  17.510 -16.620  0.00  0.00    -0.004 A 
ENDBRANCH   1   2
BRANCH   1   8
ATOM      8  CA  PHE A   1      39.048  16.288 -16.395  0.00  0.00    +0.137 C 
BRANCH   8   9
ATOM      9  N   PHE A   1      39.465  16.376 -17.795  0.00  0.00    -0.239 NA
ATOM     10  H   PHE A   1      39.317  17.280 -18.288  0.00  0.00    +0.142 HD
ENDBRANCH   8   9
BRANCH   8  11
ATOM     11  C   PHE A   1      38.022  17.366 -16.012  0.00  0.00    +0.224 C 
ATOM     12  O   PHE A   1      37.825  18.327 -16.700  0.00  0.00    -0.287 OA
ENDBRANCH   8  11
ENDBRANCH   1   8
TORSDOF 4
REMARK  Name = ../refined-set-2016/4tmn/4tmn_pocket.pdb
REMARK  240 active torsions:
REMARK  status: ('A' for Active; 'I' for Inactive)
REMARK    1  A    between atoms: _1  and  _3
REMARK    2  A    between atoms: _3  and  _4
REMARK    3  A    between atoms: _3  and  _6
REMARK    4  A    between atoms: _6  and  _7
REMARK    5  A    between atoms: _12  and  _13
REMARK    6  A    between atoms: _15  and  _17
REMARK    7  A    between atoms: _17  and  _18
REMARK    8  A    between atoms: _17  and  _20
REMARK    9  A    between atoms: _20  and  _21
REMARK   10  A    between atoms: _26  and  _27
REMARK   11  A    between atoms: _29  and  _31
REMARK   12  A    between atoms: _31  and  _32
REMARK   13  A    between atoms: _31  and  _34
REMARK   14  A    between atoms: _34  and  _35
REMARK   15  A    between atoms: _40  and  _42
REMARK   16  A    between atoms: _42  and  _43
REMARK   17  A    between atoms: _42  and  _45
REMARK   18  A    between atoms: _45  and  _46
REMARK   19  A    between atoms: _51  and  _53
REMARK   20  A    between atoms: _53  and  _54
REMARK   21  A    between atoms: _57  and  _59
REMARK   22  A    between atoms: _59  and  _60
REMARK   23  A    between atoms: _59  and  _62
REMARK   24  A    between atoms: _62  and  _63
REMARK   25  A    between atoms: _69  and  _71
REMARK   26  A    between atoms: _71  and  _72
REMARK   27  A    between atoms: _71  and  _74
REMARK   28  A    between atoms: _74  and  _75
REMARK   29  A    between atoms: _85  and  _87
REMARK   30  A    between atoms: _87  and  _88
REMARK   31  A    between atoms: _87  and  _90
REMARK   32  A    between atoms: _90  and  _91
REMARK   33  A    between atoms: _96  and  _98
REMARK   34  A    between atoms: _98  and  _99
REMARK   35  A    between atoms: _103  and  _104
REMARK   36  A    between atoms: _103  and  _106
REMARK   37  A    between atoms: _106  and  _107
REMARK   38  A    between atoms: _109  and  _111
REMARK   39  A    between atoms: _111  and  _112
REMARK   40  A    between atoms: _111  and  _114
REMARK   41  A    between atoms: _114  and  _115
REMARK   42  A    between atoms: _115  and  _116
REMARK   43  A    between atoms: _119  and  _121
REMARK   44  A    between atoms: _121  and  _122
REMARK   45  A    between atoms: _121  and  _124
REMARK   46  A    between atoms: _124  and  _125
REMARK   47  A    between atoms: _125  and  _126
REMARK   48  A    between atoms: _128  and  _130
REMARK   49  A    between atoms: _130  and  _131
REMARK   50  A    between atoms: _130  and  _133
REMARK   51  A    between atoms: _136  and  _138
REMARK   52  A    between atoms: _138  and  _139
REMARK   53  A    between atoms: _138  and  _141
REMARK   54  A    between atoms: _141  and  _142
REMARK   55  A    between atoms: _147  and  _148
REMARK   56  A    between atoms: _150  and  _152
REMARK   57  A    between atoms: _152  and  _153
REMARK   58  A    between atoms: _155  and  _157
REMARK   59  A    between atoms: _157  and  _158
REMARK   60  A    between atoms: _157  and  _160
REMARK   61  A    between atoms: _160  and  _161
REMARK   62  A    between atoms: _164  and  _166
REMARK   63  A    between atoms: _166  and  _167
REMARK   64  A    between atoms: _166  and  _169
REMARK   65  A    between atoms: _169  and  _170
REMARK   66  A    between atoms: _176  and  _178
REMARK   67  A    between atoms: _178  and  _179
REMARK   68  A    between atoms: _178  and  _181
REMARK   69  A    between atoms: _181  and  _182
REMARK   70  A    between atoms: _185  and  _187
REMARK   71  A    between atoms: _187  and  _188
REMARK   72  A    between atoms: _190  and  _192
REMARK   73  A    between atoms: _192  and  _193
REMARK   74  A    between atoms: _192  and  _195
REMARK   75  A    between atoms: _195  and  _196
REMARK   76  A    between atoms: _199  and  _201
REMARK   77  A    between atoms: _201  and  _202
REMARK   78  A    between atoms: _201  and  _204
REMARK   79  A    between atoms: _207  and  _209
REMARK   80  A    between atoms: _209  and  _210
REMARK   81  A    between atoms: _209  and  _212
REMARK   82  A    between atoms: _215  and  _217
REMARK   83  A    between atoms: _217  and  _218
REMARK   84  A    between atoms: _221  and  _223
REMARK   85  A    between atoms: _234  and  _237
REMARK   86  A    between atoms: _237  and  _238
REMARK   87  A    between atoms: _238  and  _239
REMARK   88  A    between atoms: _244  and  _247
REMARK   89  A    between atoms: _247  and  _248
REMARK   90  A    between atoms: _253  and  _256
REMARK   91  A    between atoms: _256  and  _257
REMARK   92  A    between atoms: _262  and  _263
REMARK   93  A    between atoms: _271  and  _273
REMARK   94  A    between atoms: _273  and  _274
REMARK   95  A    between atoms: _277  and  _279
REMARK   96  A    between atoms: _279  and  _280
REMARK   97  A    between atoms: _279  and  _282
REMARK   98  A    between atoms: _282  and  _283
REMARK   99  A    between atoms: _286  and  _288
REMARK  100  A    between atoms: _288  and  _289
REMARK  101  A    between atoms: _288  and  _291
REMARK  102  A    between atoms: _291  and  _292
REMARK  103  A    between atoms: _295  and  _297
REMARK  104  A    between atoms: _297  and  _298
REMARK  105  A    between atoms: _300  and  _302
REMARK  106  A    between atoms: _302  and  _303
REMARK  107  A    between atoms: _302  and  _305
REMARK  108  A    between atoms: _305  and  _306
REMARK  109  A    between atoms: _309  and  _311
REMARK  110  A    between atoms: _311  and  _312
REMARK  111  A    between atoms: _311  and  _314
REMARK  112  A    between atoms: _314  and  _315
REMARK  113  A    between atoms: _318  and  _320
REMARK  114  A    between atoms: _320  and  _321
REMARK  115  A    between atoms: _320  and  _323
REMARK  116  A    between atoms: _323  and  _324
REMARK  117  A    between atoms: _329  and  _330
REMARK  118  A    between atoms: _332  and  _334
REMARK  119  A    between atoms: _334  and  _335
REMARK  120  A    between atoms: _334  and  _337
REMARK  121  A    between atoms: _337  and  _338
REMARK  122  A    between atoms: _338  and  _339
REMARK  123  A    between atoms: _344  and  _346
REMARK  124  A    between atoms: _346  and  _347
REMARK  125  A    between atoms: _349  and  _351
REMARK  126  A    between atoms: _351  and  _352
REMARK  127  A    between atoms: _351  and  _354
REMARK  128  A    between atoms: _354  and  _355
REMARK  129  A    between atoms: _360  and  _362
REMARK  130  A    between atoms: _362  and  _363
REMARK  131  A    between atoms: _362  and  _365
REMARK  132  A    between atoms: _365  and  _366
REMARK  133  A    between atoms: _366  and  _367
REMARK  134  A    between atoms: _367  and  _368
REMARK  135  A    between atoms: _368  and  ZN_631
REMARK  136  A    between atoms: _370  and  _372
REMARK  137  A    between atoms: _372  and  _373
REMARK  138  A    between atoms: _372  and  _375
REMARK  139  A    between atoms: _375  and  _376
REMARK  140  A    between atoms: _378  and  _380
REMARK  141  A    between atoms: _380  and  _381
REMARK  142  A    between atoms: _380  and  _383
REMARK  143  A    between atoms: _383  and  _384
REMARK  144  A    between atoms: _387  and  _389
REMARK  145  A    between atoms: _389  and  _390
REMARK  146  A    between atoms: _392  and  _394
REMARK  147  A    between atoms: _394  and  _395
REMARK  148  A    between atoms: _394  and  _397
REMARK  149  A    between atoms: _397  and  _398
REMARK  150  A    between atoms: _401  and  _403
REMARK  151  A    between atoms: _403  and  _404
REMARK  152  A    between atoms: _406  and  _408
REMARK  153  A    between atoms: _408  and  _409
REMARK  154  A    between atoms: _408  and  _411
REMARK  155  A    between atoms: _411  and  _412
REMARK  156  A    between atoms: _412  and  _413
REMARK  157  A    between atoms: _416  and  _418
REMARK  158  A    between atoms: _418  and  _419
REMARK  159  A    between atoms: _418  and  _421
REMARK  160  A    between atoms: _424  and  _426
REMARK  161  A    between atoms: _426  and  _427
REMARK  162  A    between atoms: _426  and  _429
REMARK  163  A    between atoms: _429  and  _430
REMARK  164  A    between atoms: _435  and  _436
REMARK  165  A    between atoms: _438  and  _440
REMARK  166  A    between atoms: _440  and  _441
REMARK  167  A    between atoms: _440  and  _443
REMARK  168  A    between atoms: _443  and  _444
REMARK  169  A    between atoms: _447  and  _449
REMARK  170  A    between atoms: _449  and  _450
REMARK  171  A    between atoms: _449  and  _452
REMARK  172  A    between atoms: _452  and  _453
REMARK  173  A    between atoms: _453  and  _454
REMARK  174  A    between atoms: _454  and  _455
REMARK  175  A    between atoms: _464  and  _466
REMARK  176  A    between atoms: _466  and  _467
REMARK  177  A    between atoms: _466  and  _469
REMARK  178  A    between atoms: _469  and  _470
REMARK  179  A    between atoms: _473  and  _475
REMARK  180  A    between atoms: _475  and  _476
REMARK  181  A    between atoms: _475  and  _478
REMARK  182  A    between atoms: _478  and  _479
REMARK  183  A    between atoms: _484  and  _486
REMARK  184  A    between atoms: _486  and  _487
REMARK  185  A    between atoms: _486  and  _489
REMARK  186  A    between atoms: _492  and  _494
REMARK  187  A    between atoms: _494  and  _495
REMARK  188  A    between atoms: _494  and  _497
REMARK  189  A    between atoms: _497  and  _498
REMARK  190  A    between atoms: _503  and  _505
REMARK  191  A    between atoms: _505  and  _506
REMARK  192  A    between atoms: _505  and  _508
REMARK  193  A    between atoms: _508  and  _509
REMARK  194  A    between atoms: _512  and  _514
REMARK  195  A    between atoms: _514  and  _515
REMARK  196  A    between atoms: _514  and  _517
REMARK  197  A    between atoms: _517  and  _518
REMARK  198  A    between atoms: _520  and  _522
REMARK  199  A    between atoms: _522  and  _523
REMARK  200  A    between atoms: _522  and  _525
REMARK  201  A    between atoms: _525  and  _526
REMARK  202  A    between atoms: _526  and  _527
REMARK  203  A    between atoms: _527  and  _528
REMARK  204  A    between atoms: _537  and  _539
REMARK  205  A    between atoms: _539  and  _540
REMARK  206  A    between atoms: _539  and  _542
REMARK  207  A    between atoms: _542  and  _543
REMARK  208  A    between atoms: _546  and  _548
REMARK  209  A    between atoms: _548  and  _549
REMARK  210  A    between atoms: _548  and  _551
REMARK  211  A    between atoms: _551  and  _552
REMARK  212  A    between atoms: _555  and  _557
REMARK  213  A    between atoms: _557  and  _558
REMARK  214  A    between atoms: _557  and  _560
REMARK  215  A    between atoms: _560  and  _561
REMARK  216  A    between atoms: _564  and  _566
REMARK  217  A    between atoms: _566  and  _567
REMARK  218  A    between atoms: _566  and  _569
REMARK  219  A    between atoms: _569  and  _570
REMARK  220  A    between atoms: _575  and  _576
REMARK  221  A    between atoms: _578  and  _580
REMARK  222  A    between atoms: _580  and  _581
REMARK  223  A    between atoms: _580  and  _583
REMARK  224  A    between atoms: _583  and  _584
REMARK  225  A    between atoms: _586  and  _588
REMARK  226  A    between atoms: _588  and  _589
REMARK  227  A    between atoms: _588  and  _591
REMARK  228  A    between atoms: _591  and  _592
REMARK  229  A    between atoms: _597  and  _598
REMARK  230  A    between atoms: _600  and  _602
REMARK  231  A    between atoms: _602  and  _603
REMARK  232  A    between atoms: _602  and  _605
REMARK  233  A    between atoms: _605  and  _606
REMARK  234  A    between atoms: _612  and  _614
REMARK  235  A    between atoms: _614  and  _615
REMARK  236  A    between atoms: _614  and  _617
REMARK  237  A    between atoms: _620  and  _622
REMARK  238  A    between atoms: _622  and  _623
REMARK  239  A    between atoms: _622  and  _625
REMARK  240  A    between atoms: _625  and  _626
REMARK                            x       y       z     vdW  Elec       q    Type
REMARK                         _______ _______ _______ _____ _____    ______ ____
ROOT
ATOM      1  CA  VAL A   1      39.298  20.884 -19.208  0.00  0.00    +0.133 C 
ENDROOT
BRANCH   1   2
ATOM      2  CB  VAL A   1      40.431  21.019 -18.159  0.00  0.00    +0.023 C 
ATOM      3  CG2 VAL A   1      39.926  21.973 -17.018  0.00  0.00    +0.002 C 
ATOM      4  CG1 VAL A   1      41.785  21.428 -18.856  0.00  0.00    +0.002 C 
ENDBRANCH   1   2
BRANCH   1   5
ATOM      5  N   VAL A   1      38.050  20.547 -18.533  0.00  0.00    -0.239 NA
ATOM      6  H   VAL A   1      37.943  19.571 -18.189  0.00  0.00    +0.142 HD
ENDBRANCH   1   5
BRANCH   1   7
ATOM      7  C   VAL A   1      39.651  19.811 -20.193  0.00  0.00    +0.224 C 
ATOM      8  O   VAL A   1      39.582  18.631 -19.827  0.00  0.00    -0.287 OA
ENDBRANCH   1   7
TORSDOF 3
REMARK  Name = ../refined-set-2016/4tmn/4tmn_pocket.pdb
REMARK  240 active torsions:
REMARK  status: ('A' for Active; 'I' for Inactive)
REMARK    1  A    between atoms: _1  and  _3
REMARK    2  A    between atoms: _3  and  _4
REMARK    3  A    between atoms: _3  and  _6
REMARK    4  A    between atoms: _6  and  _7
REMARK    5  A    between atoms: _12  and  _13
REMARK    6  A    between atoms: _15  and  _17
REMARK    7  A    between atoms: _17  and  _18
REMARK    8  A    between atoms: _17  and  _20
REMARK    9  A    between atoms: _20  and  _21
REMARK   10  A    between atoms: _26  and  _27
REMARK   11  A    between atoms: _29  and  _31
REMARK   12  A    between atoms: _31  and  _32
REMARK   13  A    between atoms: _31  and  _34
REMARK   14  A    between atoms: _34  and  _35
REMARK   15  A    between atoms: _40  and  _42
REMARK   16  A    between atoms: _42  and  _43
REMARK   17  A    between atoms: _42  and  _45
REMARK   18  A    between atoms: _45  and  _46
REMARK   19  A    between atoms: _51  and  _53
REMARK   20  A    between atoms: _53  and  _54
REMARK   21  A    between atoms: _57  and  _59
REMARK   22  A    between atoms: _59  and  _60
REMARK   23  A    between atoms: _59  and  _62
REMARK   24  A    between atoms: _62  and  _63
REMARK   25  A    between atoms: _69  and  _71
REMARK   26  A    between atoms: _71  and  _72
REMARK   27  A    between atoms: _71  and  _74
REMARK   28  A    between atoms: _74  and  _75
REMARK   29  A    between atoms: _85  and  _87
REMARK   30  A    between atoms: _87  and  _88
REMARK   31  A    between atoms: _87  and  _90
REMARK   32  A    between atoms: _90  and  _91
REMARK   33  A    between atoms: _96  and  _98
REMARK   34  A    between atoms: _98  and  _99
REMARK   35  A    between atoms: _103  and  _104
REMARK   36  A    between atoms: _103  and  _106
REMARK   37  A    between atoms: _106  and  _107
REMARK   38  A    between atoms: _109  and  _111
REMARK   39  A    between atoms: _111  and  _112
REMARK   40  A    between atoms: _111  and  _114
REMARK   41  A    between atoms: _114  and  _115
REMARK   42  A    between atoms: _115  and  _116
REMARK   43  A    between atoms: _119  and  _121
REMARK   44  A    between atoms: _121  and  _122
REMARK   45  A    between atoms: _121  and  _124
REMARK   46  A    between atoms: _124  and  _125
REMARK   47  A    between atoms: _125  and  _126
REMARK   48  A    between atoms: _128  and  _130
REMARK   49  A    between atoms: _130  and  _131
REMARK   50  A    between atoms: _130  and  _133
REMARK   51  A    between atoms: _136  and  _138
REMARK   52  A    between atoms: _138  and  _139
REMARK   53  A    between atoms: _138  and  _141
REMARK   54  A    between atoms: _141  and  _142
REMARK   55  A    between atoms: _147  and  _148
REMARK   56  A    between atoms: _150  and  _152
REMARK   57  A    between atoms: _152  and  _153
REMARK   58  A    between atoms: _155  and  _157
REMARK   59  A    between atoms: _157  and  _158
REMARK   60  A    between atoms: _157  and  _160
REMARK   61  A    between atoms: _160  and  _161
REMARK   62  A    between atoms: _164  and  _166
REMARK   63  A    between atoms: _166  and  _167
REMARK   64  A    between atoms: _166  and  _169
REMARK   65  A    between atoms: _169  and  _170
REMARK   66  A    between atoms: _176  and  _178
REMARK   67  A    between atoms: _178  and  _179
REMARK   68  A    between atoms: _178  and  _181
REMARK   69  A    between atoms: _181  and  _182
REMARK   70  A    between atoms: _185  and  _187
REMARK   71  A    between atoms: _187  and  _188
REMARK   72  A    between atoms: _190  and  _192
REMARK   73  A    between atoms: _192  and  _193
REMARK   74  A    between atoms: _192  and  _195
REMARK   75  A    between atoms: _195  and  _196
REMARK   76  A    between atoms: _199  and  _201
REMARK   77  A    between atoms: _201  and  _202
REMARK   78  A    between atoms: _201  and  _204
REMARK   79  A    between atoms: _207  and  _209
REMARK   80  A    between atoms: _209  and  _210
REMARK   81  A    between atoms: _209  and  _212
REMARK   82  A    between atoms: _215  and  _217
REMARK   83  A    between atoms: _217  and  _218
REMARK   84  A    between atoms: _221  and  _223
REMARK   85  A    between atoms: _234  and  _237
REMARK   86  A    between atoms: _237  and  _238
REMARK   87  A    between atoms: _238  and  _239
REMARK   88  A    between atoms: _244  and  _247
REMARK   89  A    between atoms: _247  and  _248
REMARK   90  A    between atoms: _253  and  _256
REMARK   91  A    between atoms: _256  and  _257
REMARK   92  A    between atoms: _262  and  _263
REMARK   93  A    between atoms: _271  and  _273
REMARK   94  A    between atoms: _273  and  _274
REMARK   95  A    between atoms: _277  and  _279
REMARK   96  A    between atoms: _279  and  _280
REMARK   97  A    between atoms: _279  and  _282
REMARK   98  A    between atoms: _282  and  _283
REMARK   99  A    between atoms: _286  and  _288
REMARK  100  A    between atoms: _288  and  _289
REMARK  101  A    between atoms: _288  and  _291
REMARK  102  A    between atoms: _291  and  _292
REMARK  103  A    between atoms: _295  and  _297
REMARK  104  A    between atoms: _297  and  _298
REMARK  105  A    between atoms: _300  and  _302
REMARK  106  A    between atoms: _302  and  _303
REMARK  107  A    between atoms: _302  and  _305
REMARK  108  A    between atoms: _305  and  _306
REMARK  109  A    between atoms: _309  and  _311
REMARK  110  A    between atoms: _311  and  _312
REMARK  111  A    between atoms: _311  and  _314
REMARK  112  A    between atoms: _314  and  _315
REMARK  113  A    between atoms: _318  and  _320
REMARK  114  A    between atoms: _320  and  _321
REMARK  115  A    between atoms: _320  and  _323
REMARK  116  A    between atoms: _323  and  _324
REMARK  117  A    between atoms: _329  and  _330
REMARK  118  A    between atoms: _332  and  _334
REMARK  119  A    between atoms: _334  and  _335
REMARK  120  A    between atoms: _334  and  _337
REMARK  121  A    between atoms: _337  and  _338
REMARK  122  A    between atoms: _338  and  _339
REMARK  123  A    between atoms: _344  and  _346
REMARK  124  A    between atoms: _346  and  _347
REMARK  125  A    between atoms: _349  and  _351
REMARK  126  A    between atoms: _351  and  _352
REMARK  127  A    between atoms: _351  and  _354
REMARK  128  A    between atoms: _354  and  _355
REMARK  129  A    between atoms: _360  and  _362
REMARK  130  A    between atoms: _362  and  _363
REMARK  131  A    between atoms: _362  and  _365
REMARK  132  A    between atoms: _365  and  _366
REMARK  133  A    between atoms: _366  and  _367
REMARK  134  A    between atoms: _367  and  _368
REMARK  135  A    between atoms: _368  and  ZN_631
REMARK  136  A    between atoms: _370  and  _372
REMARK  137  A    between atoms: _372  and  _373
REMARK  138  A    between atoms: _372  and  _375
REMARK  139  A    between atoms: _375  and  _376
REMARK  140  A    between atoms: _378  and  _380
REMARK  141  A    between atoms: _380  and  _381
REMARK  142  A    between atoms: _380  and  _383
REMARK  143  A    between atoms: _383  and  _384
REMARK  144  A    between atoms: _387  and  _389
REMARK  145  A    between atoms: _389  and  _390
REMARK  146  A    between atoms: _392  and  _394
REMARK  147  A    between atoms: _394  and  _395
REMARK  148  A    between atoms: _394  and  _397
REMARK  149  A    between atoms: _397  and  _398
REMARK  150  A    between atoms: _401  and  _403
REMARK  151  A    between atoms: _403  and  _404
REMARK  152  A    between atoms: _406  and  _408
REMARK  153  A    between atoms: _408  and  _409
REMARK  154  A    between atoms: _408  and  _411
REMARK  155  A    between atoms: _411  and  _412
REMARK  156  A    between atoms: _412  and  _413
REMARK  157  A    between atoms: _416  and  _418
REMARK  158  A    between atoms: _418  and  _419
REMARK  159  A    between atoms: _418  and  _421
REMARK  160  A    between atoms: _424  and  _426
REMARK  161  A    between atoms: _426  and  _427
REMARK  162  A    between atoms: _426  and  _429
REMARK  163  A    between atoms: _429  and  _430
REMARK  164  A    between atoms: _435  and  _436
REMARK  165  A    between atoms: _438  and  _440
REMARK  166  A    between atoms: _440  and  _441
REMARK  167  A    between atoms: _440  and  _443
REMARK  168  A    between atoms: _443  and  _444
REMARK  169  A    between atoms: _447  and  _449
REMARK  170  A    between atoms: _449  and  _450
REMARK  171  A    between atoms: _449  and  _452
REMARK  172  A    between atoms: _452  and  _453
REMARK  173  A    between atoms: _453  and  _454
REMARK  174  A    between atoms: _454  and  _455
REMARK  175  A    between atoms: _464  and  _466
REMARK  176  A    between atoms: _466  and  _467
REMARK  177  A    between atoms: _466  and  _469
REMARK  178  A    between atoms: _469  and  _470
REMARK  179  A    between atoms: _473  and  _475
REMARK  180  A    between atoms: _475  and  _476
REMARK  181  A    between atoms: _475  and  _478
REMARK  182  A    between atoms: _478  and  _479
REMARK  183  A    between atoms: _484  and  _486
REMARK  184  A    between atoms: _486  and  _487
REMARK  185  A    between atoms: _486  and  _489
REMARK  186  A    between atoms: _492  and  _494
REMARK  187  A    between atoms: _494  and  _495
REMARK  188  A    between atoms: _494  and  _497
REMARK  189  A    between atoms: _497  and  _498
REMARK  190  A    between atoms: _503  and  _505
REMARK  191  A    between atoms: _505  and  _506
REMARK  192  A    between atoms: _505  and  _508
REMARK  193  A    between atoms: _508  and  _509
REMARK  194  A    between atoms: _512  and  _514
REMARK  195  A    between atoms: _514  and  _515
REMARK  196  A    between atoms: _514  and  _517
REMARK  197  A    between atoms: _517  and  _518
REMARK  198  A    between atoms: _520  and  _522
REMARK  199  A    between atoms: _522  and  _523
REMARK  200  A    between atoms: _522  and  _525
REMARK  201  A    between atoms: _525  and  _526
REMARK  202  A    between atoms: _526  and  _527
REMARK  203  A    between atoms: _527  and  _528
REMARK  204  A    between atoms: _537  and  _539
REMARK  205  A    between atoms: _539  and  _540
REMARK  206  A    between atoms: _539  and  _542
REMARK  207  A    between atoms: _542  and  _543
REMARK  208  A    between atoms: _546  and  _548
REMARK  209  A    between atoms: _548  and  _549
REMARK  210  A    between atoms: _548  and  _551
REMARK  211  A    between atoms: _551  and  _552
REMARK  212  A    between atoms: _555  and  _557
REMARK  213  A    between atoms: _557  and  _558
REMARK  214  A    between atoms: _557  and  _560
REMARK  215  A    between atoms: _560  and  _561
REMARK  216  A    between atoms: _564  and  _566
REMARK  217  A    between atoms: _566  and  _567
REMARK  218  A    between atoms: _566  and  _569
REMARK  219  A    between atoms: _569  and  _570
REMARK  220  A    between atoms: _575  and  _576
REMARK  221  A    between atoms: _578  and  _580
REMARK  222  A    between atoms: _580  and  _581
REMARK  223  A    between atoms: _580  and  _583
REMARK  224  A    between atoms: _583  and  _584
REMARK  225  A    between atoms: _586  and  _588
REMARK  226  A    between atoms: _588  and  _589
REMARK  227  A    between atoms: _588  and  _591
REMARK  228  A    between atoms: _591  and  _592
REMARK  229  A    between atoms: _597  and  _598
REMARK  230  A    between atoms: _600  and  _602
REMARK  231  A    between atoms: _602  and  _603
REMARK  232  A    between atoms: _602  and  _605
REMARK  233  A    between atoms: _605  and  _606
REMARK  234  A    between atoms: _612  and  _614
REMARK  235  A    between atoms: _614  and  _615
REMARK  236  A    between atoms: _614  and  _617
REMARK  237  A    between atoms: _620  and  _622
REMARK  238  A    between atoms: _622  and  _623
REMARK  239  A    between atoms: _622  and  _625
REMARK  240  A    between atoms: _625  and  _626
REMARK                            x       y       z     vdW  Elec       q    Type
REMARK                         _______ _______ _______ _____ _____    ______ ____
ROOT
ATOM      1  CB  ASN A   1      43.212   7.255  -7.044  0.00  0.00    +0.110 C 
ENDROOT
BRANCH   1   2
ATOM      2  CG  ASN A   1      43.781   8.653  -7.128  0.00  0.00    +0.221 C 
ATOM      3  ND2 ASN A   1      44.325   9.052  -5.964  0.00  0.00    -0.329 N 
ATOM      4 HD21 ASN A   1      44.272   8.436  -5.127  0.00  0.00    +0.145 HD
ATOM      5 HD22 ASN A   1      44.798   9.976  -5.901  0.00  0.00    +0.145 HD
ATOM      6  OD1 ASN A   1      43.778   9.317  -8.230  0.00  0.00    -0.275 OA
ENDBRANCH   1   2
BRANCH   1   7
ATOM      7  CA  ASN A   1      44.336   6.233  -6.856  0.00  0.00    +0.142 C 
BRANCH   7   8
ATOM      8  N   ASN A   1      45.158   6.016  -8.018  0.00  0.00    -0.239 NA
ATOM      9  H   ASN A   1      46.136   6.370  -8.027  0.00  0.00    +0.142 HD
ENDBRANCH   7   8
BRANCH   7  10
ATOM     10  C   ASN A   1      43.720   4.972  -6.346  0.00  0.00    +0.225 C 
ATOM     11  O   ASN A   1      42.574   5.012  -5.863  0.00  0.00    -0.287 OA
ENDBRANCH   7  10
ENDBRANCH   1   7
TORSDOF 4
REMARK  Name = ../refined-set-2016/4tmn/4tmn_pocket.pdb
REMARK  240 active torsions:
REMARK  status: ('A' for Active; 'I' for Inactive)
REMARK    1  A    between atoms: _1  and  _3
REMARK    2  A    between atoms: _3  and  _4
REMARK    3  A    between atoms: _3  and  _6
REMARK    4  A    between atoms: _6  and  _7
REMARK    5  A    between atoms: _12  and  _13
REMARK    6  A    between atoms: _15  and  _17
REMARK    7  A    between atoms: _17  and  _18
REMARK    8  A    between atoms: _17  and  _20
REMARK    9  A    between atoms: _20  and  _21
REMARK   10  A    between atoms: _26  and  _27
REMARK   11  A    between atoms: _29  and  _31
REMARK   12  A    between atoms: _31  and  _32
REMARK   13  A    between atoms: _31  and  _34
REMARK   14  A    between atoms: _34  and  _35
REMARK   15  A    between atoms: _40  and  _42
REMARK   16  A    between atoms: _42  and  _43
REMARK   17  A    between atoms: _42  and  _45
REMARK   18  A    between atoms: _45  and  _46
REMARK   19  A    between atoms: _51  and  _53
REMARK   20  A    between atoms: _53  and  _54
REMARK   21  A    between atoms: _57  and  _59
REMARK   22  A    between atoms: _59  and  _60
REMARK   23  A    between atoms: _59  and  _62
REMARK   24  A    between atoms: _62  and  _63
REMARK   25  A    between atoms: _69  and  _71
REMARK   26  A    between atoms: _71  and  _72
REMARK   27  A    between atoms: _71  and  _74
REMARK   28  A    between atoms: _74  and  _75
REMARK   29  A    between atoms: _85  and  _87
REMARK   30  A    between atoms: _87  and  _88
REMARK   31  A    between atoms: _87  and  _90
REMARK   32  A    between atoms: _90  and  _91
REMARK   33  A    between atoms: _96  and  _98
REMARK   34  A    between atoms: _98  and  _99
REMARK   35  A    between atoms: _103  and  _104
REMARK   36  A    between atoms: _103  and  _106
REMARK   37  A    between atoms: _106  and  _107
REMARK   38  A    between atoms: _109  and  _111
REMARK   39  A    between atoms: _111  and  _112
REMARK   40  A    between atoms: _111  and  _114
REMARK   41  A    between atoms: _114  and  _115
REMARK   42  A    between atoms: _115  and  _116
REMARK   43  A    between atoms: _119  and  _121
REMARK   44  A    between atoms: _121  and  _122
REMARK   45  A    between atoms: _121  and  _124
REMARK   46  A    between atoms: _124  and  _125
REMARK   47  A    between atoms: _125  and  _126
REMARK   48  A    between atoms: _128  and  _130
REMARK   49  A    between atoms: _130  and  _131
REMARK   50  A    between atoms: _130  and  _133
REMARK   51  A    between atoms: _136  and  _138
REMARK   52  A    between atoms: _138  and  _139
REMARK   53  A    between atoms: _138  and  _141
REMARK   54  A    between atoms: _141  and  _142
REMARK   55  A    between atoms: _147  and  _148
REMARK   56  A    between atoms: _150  and  _152
REMARK   57  A    between atoms: _152  and  _153
REMARK   58  A    between atoms: _155  and  _157
REMARK   59  A    between atoms: _157  and  _158
REMARK   60  A    between atoms: _157  and  _160
REMARK   61  A    between atoms: _160  and  _161
REMARK   62  A    between atoms: _164  and  _166
REMARK   63  A    between atoms: _166  and  _167
REMARK   64  A    between atoms: _166  and  _169
REMARK   65  A    between atoms: _169  and  _170
REMARK   66  A    between atoms: _176  and  _178
REMARK   67  A    between atoms: _178  and  _179
REMARK   68  A    between atoms: _178  and  _181
REMARK   69  A    between atoms: _181  and  _182
REMARK   70  A    between atoms: _185  and  _187
REMARK   71  A    between atoms: _187  and  _188
REMARK   72  A    between atoms: _190  and  _192
REMARK   73  A    between atoms: _192  and  _193
REMARK   74  A    between atoms: _192  and  _195
REMARK   75  A    between atoms: _195  and  _196
REMARK   76  A    between atoms: _199  and  _201
REMARK   77  A    between atoms: _201  and  _202
REMARK   78  A    between atoms: _201  and  _204
REMARK   79  A    between atoms: _207  and  _209
REMARK   80  A    between atoms: _209  and  _210
REMARK   81  A    between atoms: _209  and  _212
REMARK   82  A    between atoms: _215  and  _217
REMARK   83  A    between atoms: _217  and  _218
REMARK   84  A    between atoms: _221  and  _223
REMARK   85  A    between atoms: _234  and  _237
REMARK   86  A    between atoms: _237  and  _238
REMARK   87  A    between atoms: _238  and  _239
REMARK   88  A    between atoms: _244  and  _247
REMARK   89  A    between atoms: _247  and  _248
REMARK   90  A    between atoms: _253  and  _256
REMARK   91  A    between atoms: _256  and  _257
REMARK   92  A    between atoms: _262  and  _263
REMARK   93  A    between atoms: _271  and  _273
REMARK   94  A    between atoms: _273  and  _274
REMARK   95  A    between atoms: _277  and  _279
REMARK   96  A    between atoms: _279  and  _280
REMARK   97  A    between atoms: _279  and  _282
REMARK   98  A    between atoms: _282  and  _283
REMARK   99  A    between atoms: _286  and  _288
REMARK  100  A    between atoms: _288  and  _289
REMARK  101  A    between atoms: _288  and  _291
REMARK  102  A    between atoms: _291  and  _292
REMARK  103  A    between atoms: _295  and  _297
REMARK  104  A    between atoms: _297  and  _298
REMARK  105  A    between atoms: _300  and  _302
REMARK  106  A    between atoms: _302  and  _303
REMARK  107  A    between atoms: _302  and  _305
REMARK  108  A    between atoms: _305  and  _306
REMARK  109  A    between atoms: _309  and  _311
REMARK  110  A    between atoms: _311  and  _312
REMARK  111  A    between atoms: _311  and  _314
REMARK  112  A    between atoms: _314  and  _315
REMARK  113  A    between atoms: _318  and  _320
REMARK  114  A    between atoms: _320  and  _321
REMARK  115  A    between atoms: _320  and  _323
REMARK  116  A    between atoms: _323  and  _324
REMARK  117  A    between atoms: _329  and  _330
REMARK  118  A    between atoms: _332  and  _334
REMARK  119  A    between atoms: _334  and  _335
REMARK  120  A    between atoms: _334  and  _337
REMARK  121  A    between atoms: _337  and  _338
REMARK  122  A    between atoms: _338  and  _339
REMARK  123  A    between atoms: _344  and  _346
REMARK  124  A    between atoms: _346  and  _347
REMARK  125  A    between atoms: _349  and  _351
REMARK  126  A    between atoms: _351  and  _352
REMARK  127  A    between atoms: _351  and  _354
REMARK  128  A    between atoms: _354  and  _355
REMARK  129  A    between atoms: _360  and  _362
REMARK  130  A    between atoms: _362  and  _363
REMARK  131  A    between atoms: _362  and  _365
REMARK  132  A    between atoms: _365  and  _366
REMARK  133  A    between atoms: _366  and  _367
REMARK  134  A    between atoms: _367  and  _368
REMARK  135  A    between atoms: _368  and  ZN_631
REMARK  136  A    between atoms: _370  and  _372
REMARK  137  A    between atoms: _372  and  _373
REMARK  138  A    between atoms: _372  and  _375
REMARK  139  A    between atoms: _375  and  _376
REMARK  140  A    between atoms: _378  and  _380
REMARK  141  A    between atoms: _380  and  _381
REMARK  142  A    between atoms: _380  and  _383
REMARK  143  A    between atoms: _383  and  _384
REMARK  144  A    between atoms: _387  and  _389
REMARK  145  A    between atoms: _389  and  _390
REMARK  146  A    between atoms: _392  and  _394
REMARK  147  A    between atoms: _394  and  _395
REMARK  148  A    between atoms: _394  and  _397
REMARK  149  A    between atoms: _397  and  _398
REMARK  150  A    between atoms: _401  and  _403
REMARK  151  A    between atoms: _403  and  _404
REMARK  152  A    between atoms: _406  and  _408
REMARK  153  A    between atoms: _408  and  _409
REMARK  154  A    between atoms: _408  and  _411
REMARK  155  A    between atoms: _411  and  _412
REMARK  156  A    between atoms: _412  and  _413
REMARK  157  A    between atoms: _416  and  _418
REMARK  158  A    between atoms: _418  and  _419
REMARK  159  A    between atoms: _418  and  _421
REMARK  160  A    between atoms: _424  and  _426
REMARK  161  A    between atoms: _426  and  _427
REMARK  162  A    between atoms: _426  and  _429
REMARK  163  A    between atoms: _429  and  _430
REMARK  164  A    between atoms: _435  and  _436
REMARK  165  A    between atoms: _438  and  _440
REMARK  166  A    between atoms: _440  and  _441
REMARK  167  A    between atoms: _440  and  _443
REMARK  168  A    between atoms: _443  and  _444
REMARK  169  A    between atoms: _447  and  _449
REMARK  170  A    between atoms: _449  and  _450
REMARK  171  A    between atoms: _449  and  _452
REMARK  172  A    between atoms: _452  and  _453
REMARK  173  A    between atoms: _453  and  _454
REMARK  174  A    between atoms: _454  and  _455
REMARK  175  A    between atoms: _464  and  _466
REMARK  176  A    between atoms: _466  and  _467
REMARK  177  A    between atoms: _466  and  _469
REMARK  178  A    between atoms: _469  and  _470
REMARK  179  A    between atoms: _473  and  _475
REMARK  180  A    between atoms: _475  and  _476
REMARK  181  A    between atoms: _475  and  _478
REMARK  182  A    between atoms: _478  and  _479
REMARK  183  A    between atoms: _484  and  _486
REMARK  184  A    between atoms: _486  and  _487
REMARK  185  A    between atoms: _486  and  _489
REMARK  186  A    between atoms: _492  and  _494
REMARK  187  A    between atoms: _494  and  _495
REMARK  188  A    between atoms: _494  and  _497
REMARK  189  A    between atoms: _497  and  _498
REMARK  190  A    between atoms: _503  and  _505
REMARK  191  A    between atoms: _505  and  _506
REMARK  192  A    between atoms: _505  and  _508
REMARK  193  A    between atoms: _508  and  _509
REMARK  194  A    between atoms: _512  and  _514
REMARK  195  A    between atoms: _514  and  _515
REMARK  196  A    between atoms: _514  and  _517
REMARK  197  A    between atoms: _517  and  _518
REMARK  198  A    between atoms: _520  and  _522
REMARK  199  A    between atoms: _522  and  _523
REMARK  200  A    between atoms: _522  and  _525
REMARK  201  A    between atoms: _525  and  _526
REMARK  202  A    between atoms: _526  and  _527
REMARK  203  A    between atoms: _527  and  _528
REMARK  204  A    between atoms: _537  and  _539
REMARK  205  A    between atoms: _539  and  _540
REMARK  206  A    between atoms: _539  and  _542
REMARK  207  A    between atoms: _542  and  _543
REMARK  208  A    between atoms: _546  and  _548
REMARK  209  A    between atoms: _548  and  _549
REMARK  210  A    between atoms: _548  and  _551
REMARK  211  A    between atoms: _551  and  _552
REMARK  212  A    between atoms: _555  and  _557
REMARK  213  A    between atoms: _557  and  _558
REMARK  214  A    between atoms: _557  and  _560
REMARK  215  A    between atoms: _560  and  _561
REMARK  216  A    between atoms: _564  and  _566
REMARK  217  A    between atoms: _566  and  _567
REMARK  218  A    between atoms: _566  and  _569
REMARK  219  A    between atoms: _569  and  _570
REMARK  220  A    between atoms: _575  and  _576
REMARK  221  A    between atoms: _578  and  _580
REMARK  222  A    between atoms: _580  and  _581
REMARK  223  A    between atoms: _580  and  _583
REMARK  224  A    between atoms: _583  and  _584
REMARK  225  A    between atoms: _586  and  _588
REMARK  226  A    between atoms: _588  and  _589
REMARK  227  A    between atoms: _588  and  _591
REMARK  228  A    between atoms: _591  and  _592
REMARK  229  A    between atoms: _597  and  _598
REMARK  230  A    between atoms: _600  and  _602
REMARK  231  A    between atoms: _602  and  _603
REMARK  232  A    between atoms: _602  and  _605
REMARK  233  A    between atoms: _605  and  _606
REMARK  234  A    between atoms: _612  and  _614
REMARK  235  A    between atoms: _614  and  _615
REMARK  236  A    between atoms: _614  and  _617
REMARK  237  A    between atoms: _620  and  _622
REMARK  238  A    between atoms: _622  and  _623
REMARK  239  A    between atoms: _622  and  _625
REMARK  240  A    between atoms: _625  and  _626
REMARK                            x       y       z     vdW  Elec       q    Type
REMARK                         _______ _______ _______ _____ _____    ______ ____
ROOT
ATOM      1  O   HOH     1      42.549  22.417 -12.726  0.00  0.00    +0.000 OA
ENDROOT
TORSDOF 0
REMARK  Name = ../refined-set-2016/4tmn/4tmn_pocket.pdb
REMARK  240 active torsions:
REMARK  status: ('A' for Active; 'I' for Inactive)
REMARK    1  A    between atoms: _1  and  _3
REMARK    2  A    between atoms: _3  and  _4
REMARK    3  A    between atoms: _3  and  _6
REMARK    4  A    between atoms: _6  and  _7
REMARK    5  A    between atoms: _12  and  _13
REMARK    6  A    between atoms: _15  and  _17
REMARK    7  A    between atoms: _17  and  _18
REMARK    8  A    between atoms: _17  and  _20
REMARK    9  A    between atoms: _20  and  _21
REMARK   10  A    between atoms: _26  and  _27
REMARK   11  A    between atoms: _29  and  _31
REMARK   12  A    between atoms: _31  and  _32
REMARK   13  A    between atoms: _31  and  _34
REMARK   14  A    between atoms: _34  and  _35
REMARK   15  A    between atoms: _40  and  _42
REMARK   16  A    between atoms: _42  and  _43
REMARK   17  A    between atoms: _42  and  _45
REMARK   18  A    between atoms: _45  and  _46
REMARK   19  A    between atoms: _51  and  _53
REMARK   20  A    between atoms: _53  and  _54
REMARK   21  A    between atoms: _57  and  _59
REMARK   22  A    between atoms: _59  and  _60
REMARK   23  A    between atoms: _59  and  _62
REMARK   24  A    between atoms: _62  and  _63
REMARK   25  A    between atoms: _69  and  _71
REMARK   26  A    between atoms: _71  and  _72
REMARK   27  A    between atoms: _71  and  _74
REMARK   28  A    between atoms: _74  and  _75
REMARK   29  A    between atoms: _85  and  _87
REMARK   30  A    between atoms: _87  and  _88
REMARK   31  A    between atoms: _87  and  _90
REMARK   32  A    between atoms: _90  and  _91
REMARK   33  A    between atoms: _96  and  _98
REMARK   34  A    between atoms: _98  and  _99
REMARK   35  A    between atoms: _103  and  _104
REMARK   36  A    between atoms: _103  and  _106
REMARK   37  A    between atoms: _106  and  _107
REMARK   38  A    between atoms: _109  and  _111
REMARK   39  A    between atoms: _111  and  _112
REMARK   40  A    between atoms: _111  and  _114
REMARK   41  A    between atoms: _114  and  _115
REMARK   42  A    between atoms: _115  and  _116
REMARK   43  A    between atoms: _119  and  _121
REMARK   44  A    between atoms: _121  and  _122
REMARK   45  A    between atoms: _121  and  _124
REMARK   46  A    between atoms: _124  and  _125
REMARK   47  A    between atoms: _125  and  _126
REMARK   48  A    between atoms: _128  and  _130
REMARK   49  A    between atoms: _130  and  _131
REMARK   50  A    between atoms: _130  and  _133
REMARK   51  A    between atoms: _136  and  _138
REMARK   52  A    between atoms: _138  and  _139
REMARK   53  A    between atoms: _138  and  _141
REMARK   54  A    between atoms: _141  and  _142
REMARK   55  A    between atoms: _147  and  _148
REMARK   56  A    between atoms: _150  and  _152
REMARK   57  A    between atoms: _152  and  _153
REMARK   58  A    between atoms: _155  and  _157
REMARK   59  A    between atoms: _157  and  _158
REMARK   60  A    between atoms: _157  and  _160
REMARK   61  A    between atoms: _160  and  _161
REMARK   62  A    between atoms: _164  and  _166
REMARK   63  A    between atoms: _166  and  _167
REMARK   64  A    between atoms: _166  and  _169
REMARK   65  A    between atoms: _169  and  _170
REMARK   66  A    between atoms: _176  and  _178
REMARK   67  A    between atoms: _178  and  _179
REMARK   68  A    between atoms: _178  and  _181
REMARK   69  A    between atoms: _181  and  _182
REMARK   70  A    between atoms: _185  and  _187
REMARK   71  A    between atoms: _187  and  _188
REMARK   72  A    between atoms: _190  and  _192
REMARK   73  A    between atoms: _192  and  _193
REMARK   74  A    between atoms: _192  and  _195
REMARK   75  A    between atoms: _195  and  _196
REMARK   76  A    between atoms: _199  and  _201
REMARK   77  A    between atoms: _201  and  _202
REMARK   78  A    between atoms: _201  and  _204
REMARK   79  A    between atoms: _207  and  _209
REMARK   80  A    between atoms: _209  and  _210
REMARK   81  A    between atoms: _209  and  _212
REMARK   82  A    between atoms: _215  and  _217
REMARK   83  A    between atoms: _217  and  _218
REMARK   84  A    between atoms: _221  and  _223
REMARK   85  A    between atoms: _234  and  _237
REMARK   86  A    between atoms: _237  and  _238
REMARK   87  A    between atoms: _238  and  _239
REMARK   88  A    between atoms: _244  and  _247
REMARK   89  A    between atoms: _247  and  _248
REMARK   90  A    between atoms: _253  and  _256
REMARK   91  A    between atoms: _256  and  _257
REMARK   92  A    between atoms: _262  and  _263
REMARK   93  A    between atoms: _271  and  _273
REMARK   94  A    between atoms: _273  and  _274
REMARK   95  A    between atoms: _277  and  _279
REMARK   96  A    between atoms: _279  and  _280
REMARK   97  A    between atoms: _279  and  _282
REMARK   98  A    between atoms: _282  and  _283
REMARK   99  A    between atoms: _286  and  _288
REMARK  100  A    between atoms: _288  and  _289
REMARK  101  A    between atoms: _288  and  _291
REMARK  102  A    between atoms: _291  and  _292
REMARK  103  A    between atoms: _295  and  _297
REMARK  104  A    between atoms: _297  and  _298
REMARK  105  A    between atoms: _300  and  _302
REMARK  106  A    between atoms: _302  and  _303
REMARK  107  A    between atoms: _302  and  _305
REMARK  108  A    between atoms: _305  and  _306
REMARK  109  A    between atoms: _309  and  _311
REMARK  110  A    between atoms: _311  and  _312
REMARK  111  A    between atoms: _311  and  _314
REMARK  112  A    between atoms: _314  and  _315
REMARK  113  A    between atoms: _318  and  _320
REMARK  114  A    between atoms: _320  and  _321
REMARK  115  A    between atoms: _320  and  _323
REMARK  116  A    between atoms: _323  and  _324
REMARK  117  A    between atoms: _329  and  _330
REMARK  118  A    between atoms: _332  and  _334
REMARK  119  A    between atoms: _334  and  _335
REMARK  120  A    between atoms: _334  and  _337
REMARK  121  A    between atoms: _337  and  _338
REMARK  122  A    between atoms: _338  and  _339
REMARK  123  A    between atoms: _344  and  _346
REMARK  124  A    between atoms: _346  and  _347
REMARK  125  A    between atoms: _349  and  _351
REMARK  126  A    between atoms: _351  and  _352
REMARK  127  A    between atoms: _351  and  _354
REMARK  128  A    between atoms: _354  and  _355
REMARK  129  A    between atoms: _360  and  _362
REMARK  130  A    between atoms: _362  and  _363
REMARK  131  A    between atoms: _362  and  _365
REMARK  132  A    between atoms: _365  and  _366
REMARK  133  A    between atoms: _366  and  _367
REMARK  134  A    between atoms: _367  and  _368
REMARK  135  A    between atoms: _368  and  ZN_631
REMARK  136  A    between atoms: _370  and  _372
REMARK  137  A    between atoms: _372  and  _373
REMARK  138  A    between atoms: _372  and  _375
REMARK  139  A    between atoms: _375  and  _376
REMARK  140  A    between atoms: _378  and  _380
REMARK  141  A    between atoms: _380  and  _381
REMARK  142  A    between atoms: _380  and  _383
REMARK  143  A    between atoms: _383  and  _384
REMARK  144  A    between atoms: _387  and  _389
REMARK  145  A    between atoms: _389  and  _390
REMARK  146  A    between atoms: _392  and  _394
REMARK  147  A    between atoms: _394  and  _395
REMARK  148  A    between atoms: _394  and  _397
REMARK  149  A    between atoms: _397  and  _398
REMARK  150  A    between atoms: _401  and  _403
REMARK  151  A    between atoms: _403  and  _404
REMARK  152  A    between atoms: _406  and  _408
REMARK  153  A    between atoms: _408  and  _409
REMARK  154  A    between atoms: _408  and  _411
REMARK  155  A    between atoms: _411  and  _412
REMARK  156  A    between atoms: _412  and  _413
REMARK  157  A    between atoms: _416  and  _418
REMARK  158  A    between atoms: _418  and  _419
REMARK  159  A    between atoms: _418  and  _421
REMARK  160  A    between atoms: _424  and  _426
REMARK  161  A    between atoms: _426  and  _427
REMARK  162  A    between atoms: _426  and  _429
REMARK  163  A    between atoms: _429  and  _430
REMARK  164  A    between atoms: _435  and  _436
REMARK  165  A    between atoms: _438  and  _440
REMARK  166  A    between atoms: _440  and  _441
REMARK  167  A    between atoms: _440  and  _443
REMARK  168  A    between atoms: _443  and  _444
REMARK  169  A    between atoms: _447  and  _449
REMARK  170  A    between atoms: _449  and  _450
REMARK  171  A    between atoms: _449  and  _452
REMARK  172  A    between atoms: _452  and  _453
REMARK  173  A    between atoms: _453  and  _454
REMARK  174  A    between atoms: _454  and  _455
REMARK  175  A    between atoms: _464  and  _466
REMARK  176  A    between atoms: _466  and  _467
REMARK  177  A    between atoms: _466  and  _469
REMARK  178  A    between atoms: _469  and  _470
REMARK  179  A    between atoms: _473  and  _475
REMARK  180  A    between atoms: _475  and  _476
REMARK  181  A    between atoms: _475  and  _478
REMARK  182  A    between atoms: _478  and  _479
REMARK  183  A    between atoms: _484  and  _486
REMARK  184  A    between atoms: _486  and  _487
REMARK  185  A    between atoms: _486  and  _489
REMARK  186  A    between atoms: _492  and  _494
REMARK  187  A    between atoms: _494  and  _495
REMARK  188  A    between atoms: _494  and  _497
REMARK  189  A    between atoms: _497  and  _498
REMARK  190  A    between atoms: _503  and  _505
REMARK  191  A    between atoms: _505  and  _506
REMARK  192  A    between atoms: _505  and  _508
REMARK  193  A    between atoms: _508  and  _509
REMARK  194  A    between atoms: _512  and  _514
REMARK  195  A    between atoms: _514  and  _515
REMARK  196  A    between atoms: _514  and  _517
REMARK  197  A    between atoms: _517  and  _518
REMARK  198  A    between atoms: _520  and  _522
REMARK  199  A    between atoms: _522  and  _523
REMARK  200  A    between atoms: _522  and  _525
REMARK  201  A    between atoms: _525  and  _526
REMARK  202  A    between atoms: _526  and  _527
REMARK  203  A    between atoms: _527  and  _528
REMARK  204  A    between atoms: _537  and  _539
REMARK  205  A    between atoms: _539  and  _540
REMARK  206  A    between atoms: _539  and  _542
REMARK  207  A    between atoms: _542  and  _543
REMARK  208  A    between atoms: _546  and  _548
REMARK  209  A    between atoms: _548  and  _549
REMARK  210  A    between atoms: _548  and  _551
REMARK  211  A    between atoms: _551  and  _552
REMARK  212  A    between atoms: _555  and  _557
REMARK  213  A    between atoms: _557  and  _558
REMARK  214  A    between atoms: _557  and  _560
REMARK  215  A    between atoms: _560  and  _561
REMARK  216  A    between atoms: _564  and  _566
REMARK  217  A    between atoms: _566  and  _567
REMARK  218  A    between atoms: _566  and  _569
REMARK  219  A    between atoms: _569  and  _570
REMARK  220  A    between atoms: _575  and  _576
REMARK  221  A    between atoms: _578  and  _580
REMARK  222  A    between atoms: _580  and  _581
REMARK  223  A    between atoms: _580  and  _583
REMARK  224  A    between atoms: _583  and  _584
REMARK  225  A    between atoms: _586  and  _588
REMARK  226  A    between atoms: _588  and  _589
REMARK  227  A    between atoms: _588  and  _591
REMARK  228  A    between atoms: _591  and  _592
REMARK  229  A    between atoms: _597  and  _598
REMARK  230  A    between atoms: _600  and  _602
REMARK  231  A    between atoms: _602  and  _603
REMARK  232  A    between atoms: _602  and  _605
REMARK  233  A    between atoms: _605  and  _606
REMARK  234  A    between atoms: _612  and  _614
REMARK  235  A    between atoms: _614  and  _615
REMARK  236  A    between atoms: _614  and  _617
REMARK  237  A    between atoms: _620  and  _622
REMARK  238  A    between atoms: _622  and  _623
REMARK  239  A    between atoms: _622  and  _625
REMARK  240  A    between atoms: _625  and  _626
REMARK                            x       y       z     vdW  Elec       q    Type
REMARK                         _______ _______ _______ _____ _____    ______ ____
ROOT
ATOM      1  O   HOH     1      57.002  25.518  -9.980  0.00  0.00    +0.000 OA
ENDROOT
TORSDOF 0
REMARK  Name = ../refined-set-2016/4tmn/4tmn_pocket.pdb
REMARK  240 active torsions:
REMARK  status: ('A' for Active; 'I' for Inactive)
REMARK    1  A    between atoms: _1  and  _3
REMARK    2  A    between atoms: _3  and  _4
REMARK    3  A    between atoms: _3  and  _6
REMARK    4  A    between atoms: _6  and  _7
REMARK    5  A    between atoms: _12  and  _13
REMARK    6  A    between atoms: _15  and  _17
REMARK    7  A    between atoms: _17  and  _18
REMARK    8  A    between atoms: _17  and  _20
REMARK    9  A    between atoms: _20  and  _21
REMARK   10  A    between atoms: _26  and  _27
REMARK   11  A    between atoms: _29  and  _31
REMARK   12  A    between atoms: _31  and  _32
REMARK   13  A    between atoms: _31  and  _34
REMARK   14  A    between atoms: _34  and  _35
REMARK   15  A    between atoms: _40  and  _42
REMARK   16  A    between atoms: _42  and  _43
REMARK   17  A    between atoms: _42  and  _45
REMARK   18  A    between atoms: _45  and  _46
REMARK   19  A    between atoms: _51  and  _53
REMARK   20  A    between atoms: _53  and  _54
REMARK   21  A    between atoms: _57  and  _59
REMARK   22  A    between atoms: _59  and  _60
REMARK   23  A    between atoms: _59  and  _62
REMARK   24  A    between atoms: _62  and  _63
REMARK   25  A    between atoms: _69  and  _71
REMARK   26  A    between atoms: _71  and  _72
REMARK   27  A    between atoms: _71  and  _74
REMARK   28  A    between atoms: _74  and  _75
REMARK   29  A    between atoms: _85  and  _87
REMARK   30  A    between atoms: _87  and  _88
REMARK   31  A    between atoms: _87  and  _90
REMARK   32  A    between atoms: _90  and  _91
REMARK   33  A    between atoms: _96  and  _98
REMARK   34  A    between atoms: _98  and  _99
REMARK   35  A    between atoms: _103  and  _104
REMARK   36  A    between atoms: _103  and  _106
REMARK   37  A    between atoms: _106  and  _107
REMARK   38  A    between atoms: _109  and  _111
REMARK   39  A    between atoms: _111  and  _112
REMARK   40  A    between atoms: _111  and  _114
REMARK   41  A    between atoms: _114  and  _115
REMARK   42  A    between atoms: _115  and  _116
REMARK   43  A    between atoms: _119  and  _121
REMARK   44  A    between atoms: _121  and  _122
REMARK   45  A    between atoms: _121  and  _124
REMARK   46  A    between atoms: _124  and  _125
REMARK   47  A    between atoms: _125  and  _126
REMARK   48  A    between atoms: _128  and  _130
REMARK   49  A    between atoms: _130  and  _131
REMARK   50  A    between atoms: _130  and  _133
REMARK   51  A    between atoms: _136  and  _138
REMARK   52  A    between atoms: _138  and  _139
REMARK   53  A    between atoms: _138  and  _141
REMARK   54  A    between atoms: _141  and  _142
REMARK   55  A    between atoms: _147  and  _148
REMARK   56  A    between atoms: _150  and  _152
REMARK   57  A    between atoms: _152  and  _153
REMARK   58  A    between atoms: _155  and  _157
REMARK   59  A    between atoms: _157  and  _158
REMARK   60  A    between atoms: _157  and  _160
REMARK   61  A    between atoms: _160  and  _161
REMARK   62  A    between atoms: _164  and  _166
REMARK   63  A    between atoms: _166  and  _167
REMARK   64  A    between atoms: _166  and  _169
REMARK   65  A    between atoms: _169  and  _170
REMARK   66  A    between atoms: _176  and  _178
REMARK   67  A    between atoms: _178  and  _179
REMARK   68  A    between atoms: _178  and  _181
REMARK   69  A    between atoms: _181  and  _182
REMARK   70  A    between atoms: _185  and  _187
REMARK   71  A    between atoms: _187  and  _188
REMARK   72  A    between atoms: _190  and  _192
REMARK   73  A    between atoms: _192  and  _193
REMARK   74  A    between atoms: _192  and  _195
REMARK   75  A    between atoms: _195  and  _196
REMARK   76  A    between atoms: _199  and  _201
REMARK   77  A    between atoms: _201  and  _202
REMARK   78  A    between atoms: _201  and  _204
REMARK   79  A    between atoms: _207  and  _209
REMARK   80  A    between atoms: _209  and  _210
REMARK   81  A    between atoms: _209  and  _212
REMARK   82  A    between atoms: _215  and  _217
REMARK   83  A    between atoms: _217  and  _218
REMARK   84  A    between atoms: _221  and  _223
REMARK   85  A    between atoms: _234  and  _237
REMARK   86  A    between atoms: _237  and  _238
REMARK   87  A    between atoms: _238  and  _239
REMARK   88  A    between atoms: _244  and  _247
REMARK   89  A    between atoms: _247  and  _248
REMARK   90  A    between atoms: _253  and  _256
REMARK   91  A    between atoms: _256  and  _257
REMARK   92  A    between atoms: _262  and  _263
REMARK   93  A    between atoms: _271  and  _273
REMARK   94  A    between atoms: _273  and  _274
REMARK   95  A    between atoms: _277  and  _279
REMARK   96  A    between atoms: _279  and  _280
REMARK   97  A    between atoms: _279  and  _282
REMARK   98  A    between atoms: _282  and  _283
REMARK   99  A    between atoms: _286  and  _288
REMARK  100  A    between atoms: _288  and  _289
REMARK  101  A    between atoms: _288  and  _291
REMARK  102  A    between atoms: _291  and  _292
REMARK  103  A    between atoms: _295  and  _297
REMARK  104  A    between atoms: _297  and  _298
REMARK  105  A    between atoms: _300  and  _302
REMARK  106  A    between atoms: _302  and  _303
REMARK  107  A    between atoms: _302  and  _305
REMARK  108  A    between atoms: _305  and  _306
REMARK  109  A    between atoms: _309  and  _311
REMARK  110  A    between atoms: _311  and  _312
REMARK  111  A    between atoms: _311  and  _314
REMARK  112  A    between atoms: _314  and  _315
REMARK  113  A    between atoms: _318  and  _320
REMARK  114  A    between atoms: _320  and  _321
REMARK  115  A    between atoms: _320  and  _323
REMARK  116  A    between atoms: _323  and  _324
REMARK  117  A    between atoms: _329  and  _330
REMARK  118  A    between atoms: _332  and  _334
REMARK  119  A    between atoms: _334  and  _335
REMARK  120  A    between atoms: _334  and  _337
REMARK  121  A    between atoms: _337  and  _338
REMARK  122  A    between atoms: _338  and  _339
REMARK  123  A    between atoms: _344  and  _346
REMARK  124  A    between atoms: _346  and  _347
REMARK  125  A    between atoms: _349  and  _351
REMARK  126  A    between atoms: _351  and  _352
REMARK  127  A    between atoms: _351  and  _354
REMARK  128  A    between atoms: _354  and  _355
REMARK  129  A    between atoms: _360  and  _362
REMARK  130  A    between atoms: _362  and  _363
REMARK  131  A    between atoms: _362  and  _365
REMARK  132  A    between atoms: _365  and  _366
REMARK  133  A    between atoms: _366  and  _367
REMARK  134  A    between atoms: _367  and  _368
REMARK  135  A    between atoms: _368  and  ZN_631
REMARK  136  A    between atoms: _370  and  _372
REMARK  137  A    between atoms: _372  and  _373
REMARK  138  A    between atoms: _372  and  _375
REMARK  139  A    between atoms: _375  and  _376
REMARK  140  A    between atoms: _378  and  _380
REMARK  141  A    between atoms: _380  and  _381
REMARK  142  A    between atoms: _380  and  _383
REMARK  143  A    between atoms: _383  and  _384
REMARK  144  A    between atoms: _387  and  _389
REMARK  145  A    between atoms: _389  and  _390
REMARK  146  A    between atoms: _392  and  _394
REMARK  147  A    between atoms: _394  and  _395
REMARK  148  A    between atoms: _394  and  _397
REMARK  149  A    between atoms: _397  and  _398
REMARK  150  A    between atoms: _401  and  _403
REMARK  151  A    between atoms: _403  and  _404
REMARK  152  A    between atoms: _406  and  _408
REMARK  153  A    between atoms: _408  and  _409
REMARK  154  A    between atoms: _408  and  _411
REMARK  155  A    between atoms: _411  and  _412
REMARK  156  A    between atoms: _412  and  _413
REMARK  157  A    between atoms: _416  and  _418
REMARK  158  A    between atoms: _418  and  _419
REMARK  159  A    between atoms: _418  and  _421
REMARK  160  A    between atoms: _424  and  _426
REMARK  161  A    between atoms: _426  and  _427
REMARK  162  A    between atoms: _426  and  _429
REMARK  163  A    between atoms: _429  and  _430
REMARK  164  A    between atoms: _435  and  _436
REMARK  165  A    between atoms: _438  and  _440
REMARK  166  A    between atoms: _440  and  _441
REMARK  167  A    between atoms: _440  and  _443
REMARK  168  A    between atoms: _443  and  _444
REMARK  169  A    between atoms: _447  and  _449
REMARK  170  A    between atoms: _449  and  _450
REMARK  171  A    between atoms: _449  and  _452
REMARK  172  A    between atoms: _452  and  _453
REMARK  173  A    between atoms: _453  and  _454
REMARK  174  A    between atoms: _454  and  _455
REMARK  175  A    between atoms: _464  and  _466
REMARK  176  A    between atoms: _466  and  _467
REMARK  177  A    between atoms: _466  and  _469
REMARK  178  A    between atoms: _469  and  _470
REMARK  179  A    between atoms: _473  and  _475
REMARK  180  A    between atoms: _475  and  _476
REMARK  181  A    between atoms: _475  and  _478
REMARK  182  A    between atoms: _478  and  _479
REMARK  183  A    between atoms: _484  and  _486
REMARK  184  A    between atoms: _486  and  _487
REMARK  185  A    between atoms: _486  and  _489
REMARK  186  A    between atoms: _492  and  _494
REMARK  187  A    between atoms: _494  and  _495
REMARK  188  A    between atoms: _494  and  _497
REMARK  189  A    between atoms: _497  and  _498
REMARK  190  A    between atoms: _503  and  _505
REMARK  191  A    between atoms: _505  and  _506
REMARK  192  A    between atoms: _505  and  _508
REMARK  193  A    between atoms: _508  and  _509
REMARK  194  A    between atoms: _512  and  _514
REMARK  195  A    between atoms: _514  and  _515
REMARK  196  A    between atoms: _514  and  _517
REMARK  197  A    between atoms: _517  and  _518
REMARK  198  A    between atoms: _520  and  _522
REMARK  199  A    between atoms: _522  and  _523
REMARK  200  A    between atoms: _522  and  _525
REMARK  201  A    between atoms: _525  and  _526
REMARK  202  A    between atoms: _526  and  _527
REMARK  203  A    between atoms: _527  and  _528
REMARK  204  A    between atoms: _537  and  _539
REMARK  205  A    between atoms: _539  and  _540
REMARK  206  A    between atoms: _539  and  _542
REMARK  207  A    between atoms: _542  and  _543
REMARK  208  A    between atoms: _546  and  _548
REMARK  209  A    between atoms: _548  and  _549
REMARK  210  A    between atoms: _548  and  _551
REMARK  211  A    between atoms: _551  and  _552
REMARK  212  A    between atoms: _555  and  _557
REMARK  213  A    between atoms: _557  and  _558
REMARK  214  A    between atoms: _557  and  _560
REMARK  215  A    between atoms: _560  and  _561
REMARK  216  A    between atoms: _564  and  _566
REMARK  217  A    between atoms: _566  and  _567
REMARK  218  A    between atoms: _566  and  _569
REMARK  219  A    between atoms: _569  and  _570
REMARK  220  A    between atoms: _575  and  _576
REMARK  221  A    between atoms: _578  and  _580
REMARK  222  A    between atoms: _580  and  _581
REMARK  223  A    between atoms: _580  and  _583
REMARK  224  A    between atoms: _583  and  _584
REMARK  225  A    between atoms: _586  and  _588
REMARK  226  A    between atoms: _588  and  _589
REMARK  227  A    between atoms: _588  and  _591
REMARK  228  A    between atoms: _591  and  _592
REMARK  229  A    between atoms: _597  and  _598
REMARK  230  A    between atoms: _600  and  _602
REMARK  231  A    between atoms: _602  and  _603
REMARK  232  A    between atoms: _602  and  _605
REMARK  233  A    between atoms: _605  and  _606
REMARK  234  A    between atoms: _612  and  _614
REMARK  235  A    between atoms: _614  and  _615
REMARK  236  A    between atoms: _614  and  _617
REMARK  237  A    between atoms: _620  and  _622
REMARK  238  A    between atoms: _622  and  _623
REMARK  239  A    between atoms: _622  and  _625
REMARK  240  A    between atoms: _625  and  _626
REMARK                            x       y       z     vdW  Elec       q    Type
REMARK                         _______ _______ _______ _____ _____    ______ ____
ROOT
ATOM      1  O   HOH     1      51.137  18.051 -20.822  0.00  0.00    +0.000 OA
ENDROOT
TORSDOF 0
REMARK  Name = ../refined-set-2016/4tmn/4tmn_pocket.pdb
REMARK  240 active torsions:
REMARK  status: ('A' for Active; 'I' for Inactive)
REMARK    1  A    between atoms: _1  and  _3
REMARK    2  A    between atoms: _3  and  _4
REMARK    3  A    between atoms: _3  and  _6
REMARK    4  A    between atoms: _6  and  _7
REMARK    5  A    between atoms: _12  and  _13
REMARK    6  A    between atoms: _15  and  _17
REMARK    7  A    between atoms: _17  and  _18
REMARK    8  A    between atoms: _17  and  _20
REMARK    9  A    between atoms: _20  and  _21
REMARK   10  A    between atoms: _26  and  _27
REMARK   11  A    between atoms: _29  and  _31
REMARK   12  A    between atoms: _31  and  _32
REMARK   13  A    between atoms: _31  and  _34
REMARK   14  A    between atoms: _34  and  _35
REMARK   15  A    between atoms: _40  and  _42
REMARK   16  A    between atoms: _42  and  _43
REMARK   17  A    between atoms: _42  and  _45
REMARK   18  A    between atoms: _45  and  _46
REMARK   19  A    between atoms: _51  and  _53
REMARK   20  A    between atoms: _53  and  _54
REMARK   21  A    between atoms: _57  and  _59
REMARK   22  A    between atoms: _59  and  _60
REMARK   23  A    between atoms: _59  and  _62
REMARK   24  A    between atoms: _62  and  _63
REMARK   25  A    between atoms: _69  and  _71
REMARK   26  A    between atoms: _71  and  _72
REMARK   27  A    between atoms: _71  and  _74
REMARK   28  A    between atoms: _74  and  _75
REMARK   29  A    between atoms: _85  and  _87
REMARK   30  A    between atoms: _87  and  _88
REMARK   31  A    between atoms: _87  and  _90
REMARK   32  A    between atoms: _90  and  _91
REMARK   33  A    between atoms: _96  and  _98
REMARK   34  A    between atoms: _98  and  _99
REMARK   35  A    between atoms: _103  and  _104
REMARK   36  A    between atoms: _103  and  _106
REMARK   37  A    between atoms: _106  and  _107
REMARK   38  A    between atoms: _109  and  _111
REMARK   39  A    between atoms: _111  and  _112
REMARK   40  A    between atoms: _111  and  _114
REMARK   41  A    between atoms: _114  and  _115
REMARK   42  A    between atoms: _115  and  _116
REMARK   43  A    between atoms: _119  and  _121
REMARK   44  A    between atoms: _121  and  _122
REMARK   45  A    between atoms: _121  and  _124
REMARK   46  A    between atoms: _124  and  _125
REMARK   47  A    between atoms: _125  and  _126
REMARK   48  A    between atoms: _128  and  _130
REMARK   49  A    between atoms: _130  and  _131
REMARK   50  A    between atoms: _130  and  _133
REMARK   51  A    between atoms: _136  and  _138
REMARK   52  A    between atoms: _138  and  _139
REMARK   53  A    between atoms: _138  and  _141
REMARK   54  A    between atoms: _141  and  _142
REMARK   55  A    between atoms: _147  and  _148
REMARK   56  A    between atoms: _150  and  _152
REMARK   57  A    between atoms: _152  and  _153
REMARK   58  A    between atoms: _155  and  _157
REMARK   59  A    between atoms: _157  and  _158
REMARK   60  A    between atoms: _157  and  _160
REMARK   61  A    between atoms: _160  and  _161
REMARK   62  A    between atoms: _164  and  _166
REMARK   63  A    between atoms: _166  and  _167
REMARK   64  A    between atoms: _166  and  _169
REMARK   65  A    between atoms: _169  and  _170
REMARK   66  A    between atoms: _176  and  _178
REMARK   67  A    between atoms: _178  and  _179
REMARK   68  A    between atoms: _178  and  _181
REMARK   69  A    between atoms: _181  and  _182
REMARK   70  A    between atoms: _185  and  _187
REMARK   71  A    between atoms: _187  and  _188
REMARK   72  A    between atoms: _190  and  _192
REMARK   73  A    between atoms: _192  and  _193
REMARK   74  A    between atoms: _192  and  _195
REMARK   75  A    between atoms: _195  and  _196
REMARK   76  A    between atoms: _199  and  _201
REMARK   77  A    between atoms: _201  and  _202
REMARK   78  A    between atoms: _201  and  _204
REMARK   79  A    between atoms: _207  and  _209
REMARK   80  A    between atoms: _209  and  _210
REMARK   81  A    between atoms: _209  and  _212
REMARK   82  A    between atoms: _215  and  _217
REMARK   83  A    between atoms: _217  and  _218
REMARK   84  A    between atoms: _221  and  _223
REMARK   85  A    between atoms: _234  and  _237
REMARK   86  A    between atoms: _237  and  _238
REMARK   87  A    between atoms: _238  and  _239
REMARK   88  A    between atoms: _244  and  _247
REMARK   89  A    between atoms: _247  and  _248
REMARK   90  A    between atoms: _253  and  _256
REMARK   91  A    between atoms: _256  and  _257
REMARK   92  A    between atoms: _262  and  _263
REMARK   93  A    between atoms: _271  and  _273
REMARK   94  A    between atoms: _273  and  _274
REMARK   95  A    between atoms: _277  and  _279
REMARK   96  A    between atoms: _279  and  _280
REMARK   97  A    between atoms: _279  and  _282
REMARK   98  A    between atoms: _282  and  _283
REMARK   99  A    between atoms: _286  and  _288
REMARK  100  A    between atoms: _288  and  _289
REMARK  101  A    between atoms: _288  and  _291
REMARK  102  A    between atoms: _291  and  _292
REMARK  103  A    between atoms: _295  and  _297
REMARK  104  A    between atoms: _297  and  _298
REMARK  105  A    between atoms: _300  and  _302
REMARK  106  A    between atoms: _302  and  _303
REMARK  107  A    between atoms: _302  and  _305
REMARK  108  A    between atoms: _305  and  _306
REMARK  109  A    between atoms: _309  and  _311
REMARK  110  A    between atoms: _311  and  _312
REMARK  111  A    between atoms: _311  and  _314
REMARK  112  A    between atoms: _314  and  _315
REMARK  113  A    between atoms: _318  and  _320
REMARK  114  A    between atoms: _320  and  _321
REMARK  115  A    between atoms: _320  and  _323
REMARK  116  A    between atoms: _323  and  _324
REMARK  117  A    between atoms: _329  and  _330
REMARK  118  A    between atoms: _332  and  _334
REMARK  119  A    between atoms: _334  and  _335
REMARK  120  A    between atoms: _334  and  _337
REMARK  121  A    between atoms: _337  and  _338
REMARK  122  A    between atoms: _338  and  _339
REMARK  123  A    between atoms: _344  and  _346
REMARK  124  A    between atoms: _346  and  _347
REMARK  125  A    between atoms: _349  and  _351
REMARK  126  A    between atoms: _351  and  _352
REMARK  127  A    between atoms: _351  and  _354
REMARK  128  A    between atoms: _354  and  _355
REMARK  129  A    between atoms: _360  and  _362
REMARK  130  A    between atoms: _362  and  _363
REMARK  131  A    between atoms: _362  and  _365
REMARK  132  A    between atoms: _365  and  _366
REMARK  133  A    between atoms: _366  and  _367
REMARK  134  A    between atoms: _367  and  _368
REMARK  135  A    between atoms: _368  and  ZN_631
REMARK  136  A    between atoms: _370  and  _372
REMARK  137  A    between atoms: _372  and  _373
REMARK  138  A    between atoms: _372  and  _375
REMARK  139  A    between atoms: _375  and  _376
REMARK  140  A    between atoms: _378  and  _380
REMARK  141  A    between atoms: _380  and  _381
REMARK  142  A    between atoms: _380  and  _383
REMARK  143  A    between atoms: _383  and  _384
REMARK  144  A    between atoms: _387  and  _389
REMARK  145  A    between atoms: _389  and  _390
REMARK  146  A    between atoms: _392  and  _394
REMARK  147  A    between atoms: _394  and  _395
REMARK  148  A    between atoms: _394  and  _397
REMARK  149  A    between atoms: _397  and  _398
REMARK  150  A    between atoms: _401  and  _403
REMARK  151  A    between atoms: _403  and  _404
REMARK  152  A    between atoms: _406  and  _408
REMARK  153  A    between atoms: _408  and  _409
REMARK  154  A    between atoms: _408  and  _411
REMARK  155  A    between atoms: _411  and  _412
REMARK  156  A    between atoms: _412  and  _413
REMARK  157  A    between atoms: _416  and  _418
REMARK  158  A    between atoms: _418  and  _419
REMARK  159  A    between atoms: _418  and  _421
REMARK  160  A    between atoms: _424  and  _426
REMARK  161  A    between atoms: _426  and  _427
REMARK  162  A    between atoms: _426  and  _429
REMARK  163  A    between atoms: _429  and  _430
REMARK  164  A    between atoms: _435  and  _436
REMARK  165  A    between atoms: _438  and  _440
REMARK  166  A    between atoms: _440  and  _441
REMARK  167  A    between atoms: _440  and  _443
REMARK  168  A    between atoms: _443  and  _444
REMARK  169  A    between atoms: _447  and  _449
REMARK  170  A    between atoms: _449  and  _450
REMARK  171  A    between atoms: _449  and  _452
REMARK  172  A    between atoms: _452  and  _453
REMARK  173  A    between atoms: _453  and  _454
REMARK  174  A    between atoms: _454  and  _455
REMARK  175  A    between atoms: _464  and  _466
REMARK  176  A    between atoms: _466  and  _467
REMARK  177  A    between atoms: _466  and  _469
REMARK  178  A    between atoms: _469  and  _470
REMARK  179  A    between atoms: _473  and  _475
REMARK  180  A    between atoms: _475  and  _476
REMARK  181  A    between atoms: _475  and  _478
REMARK  182  A    between atoms: _478  and  _479
REMARK  183  A    between atoms: _484  and  _486
REMARK  184  A    between atoms: _486  and  _487
REMARK  185  A    between atoms: _486  and  _489
REMARK  186  A    between atoms: _492  and  _494
REMARK  187  A    between atoms: _494  and  _495
REMARK  188  A    between atoms: _494  and  _497
REMARK  189  A    between atoms: _497  and  _498
REMARK  190  A    between atoms: _503  and  _505
REMARK  191  A    between atoms: _505  and  _506
REMARK  192  A    between atoms: _505  and  _508
REMARK  193  A    between atoms: _508  and  _509
REMARK  194  A    between atoms: _512  and  _514
REMARK  195  A    between atoms: _514  and  _515
REMARK  196  A    between atoms: _514  and  _517
REMARK  197  A    between atoms: _517  and  _518
REMARK  198  A    between atoms: _520  and  _522
REMARK  199  A    between atoms: _522  and  _523
REMARK  200  A    between atoms: _522  and  _525
REMARK  201  A    between atoms: _525  and  _526
REMARK  202  A    between atoms: _526  and  _527
REMARK  203  A    between atoms: _527  and  _528
REMARK  204  A    between atoms: _537  and  _539
REMARK  205  A    between atoms: _539  and  _540
REMARK  206  A    between atoms: _539  and  _542
REMARK  207  A    between atoms: _542  and  _543
REMARK  208  A    between atoms: _546  and  _548
REMARK  209  A    between atoms: _548  and  _549
REMARK  210  A    between atoms: _548  and  _551
REMARK  211  A    between atoms: _551  and  _552
REMARK  212  A    between atoms: _555  and  _557
REMARK  213  A    between atoms: _557  and  _558
REMARK  214  A    between atoms: _557  and  _560
REMARK  215  A    between atoms: _560  and  _561
REMARK  216  A    between atoms: _564  and  _566
REMARK  217  A    between atoms: _566  and  _567
REMARK  218  A    between atoms: _566  and  _569
REMARK  219  A    between atoms: _569  and  _570
REMARK  220  A    between atoms: _575  and  _576
REMARK  221  A    between atoms: _578  and  _580
REMARK  222  A    between atoms: _580  and  _581
REMARK  223  A    between atoms: _580  and  _583
REMARK  224  A    between atoms: _583  and  _584
REMARK  225  A    between atoms: _586  and  _588
REMARK  226  A    between atoms: _588  and  _589
REMARK  227  A    between atoms: _588  and  _591
REMARK  228  A    between atoms: _591  and  _592
REMARK  229  A    between atoms: _597  and  _598
REMARK  230  A    between atoms: _600  and  _602
REMARK  231  A    between atoms: _602  and  _603
REMARK  232  A    between atoms: _602  and  _605
REMARK  233  A    between atoms: _605  and  _606
REMARK  234  A    between atoms: _612  and  _614
REMARK  235  A    between atoms: _614  and  _615
REMARK  236  A    between atoms: _614  and  _617
REMARK  237  A    between atoms: _620  and  _622
REMARK  238  A    between atoms: _622  and  _623
REMARK  239  A    between atoms: _622  and  _625
REMARK  240  A    between atoms: _625  and  _626
REMARK                            x       y       z     vdW  Elec       q    Type
REMARK                         _______ _______ _______ _____ _____    ______ ____
ROOT
ATOM      1  O   HOH     1      53.290  25.499 -16.163  0.00  0.00    +0.000 OA
ENDROOT
TORSDOF 0
REMARK  Name = ../refined-set-2016/4tmn/4tmn_pocket.pdb
REMARK  240 active torsions:
REMARK  status: ('A' for Active; 'I' for Inactive)
REMARK    1  A    between atoms: _1  and  _3
REMARK    2  A    between atoms: _3  and  _4
REMARK    3  A    between atoms: _3  and  _6
REMARK    4  A    between atoms: _6  and  _7
REMARK    5  A    between atoms: _12  and  _13
REMARK    6  A    between atoms: _15  and  _17
REMARK    7  A    between atoms: _17  and  _18
REMARK    8  A    between atoms: _17  and  _20
REMARK    9  A    between atoms: _20  and  _21
REMARK   10  A    between atoms: _26  and  _27
REMARK   11  A    between atoms: _29  and  _31
REMARK   12  A    between atoms: _31  and  _32
REMARK   13  A    between atoms: _31  and  _34
REMARK   14  A    between atoms: _34  and  _35
REMARK   15  A    between atoms: _40  and  _42
REMARK   16  A    between atoms: _42  and  _43
REMARK   17  A    between atoms: _42  and  _45
REMARK   18  A    between atoms: _45  and  _46
REMARK   19  A    between atoms: _51  and  _53
REMARK   20  A    between atoms: _53  and  _54
REMARK   21  A    between atoms: _57  and  _59
REMARK   22  A    between atoms: _59  and  _60
REMARK   23  A    between atoms: _59  and  _62
REMARK   24  A    between atoms: _62  and  _63
REMARK   25  A    between atoms: _69  and  _71
REMARK   26  A    between atoms: _71  and  _72
REMARK   27  A    between atoms: _71  and  _74
REMARK   28  A    between atoms: _74  and  _75
REMARK   29  A    between atoms: _85  and  _87
REMARK   30  A    between atoms: _87  and  _88
REMARK   31  A    between atoms: _87  and  _90
REMARK   32  A    between atoms: _90  and  _91
REMARK   33  A    between atoms: _96  and  _98
REMARK   34  A    between atoms: _98  and  _99
REMARK   35  A    between atoms: _103  and  _104
REMARK   36  A    between atoms: _103  and  _106
REMARK   37  A    between atoms: _106  and  _107
REMARK   38  A    between atoms: _109  and  _111
REMARK   39  A    between atoms: _111  and  _112
REMARK   40  A    between atoms: _111  and  _114
REMARK   41  A    between atoms: _114  and  _115
REMARK   42  A    between atoms: _115  and  _116
REMARK   43  A    between atoms: _119  and  _121
REMARK   44  A    between atoms: _121  and  _122
REMARK   45  A    between atoms: _121  and  _124
REMARK   46  A    between atoms: _124  and  _125
REMARK   47  A    between atoms: _125  and  _126
REMARK   48  A    between atoms: _128  and  _130
REMARK   49  A    between atoms: _130  and  _131
REMARK   50  A    between atoms: _130  and  _133
REMARK   51  A    between atoms: _136  and  _138
REMARK   52  A    between atoms: _138  and  _139
REMARK   53  A    between atoms: _138  and  _141
REMARK   54  A    between atoms: _141  and  _142
REMARK   55  A    between atoms: _147  and  _148
REMARK   56  A    between atoms: _150  and  _152
REMARK   57  A    between atoms: _152  and  _153
REMARK   58  A    between atoms: _155  and  _157
REMARK   59  A    between atoms: _157  and  _158
REMARK   60  A    between atoms: _157  and  _160
REMARK   61  A    between atoms: _160  and  _161
REMARK   62  A    between atoms: _164  and  _166
REMARK   63  A    between atoms: _166  and  _167
REMARK   64  A    between atoms: _166  and  _169
REMARK   65  A    between atoms: _169  and  _170
REMARK   66  A    between atoms: _176  and  _178
REMARK   67  A    between atoms: _178  and  _179
REMARK   68  A    between atoms: _178  and  _181
REMARK   69  A    between atoms: _181  and  _182
REMARK   70  A    between atoms: _185  and  _187
REMARK   71  A    between atoms: _187  and  _188
REMARK   72  A    between atoms: _190  and  _192
REMARK   73  A    between atoms: _192  and  _193
REMARK   74  A    between atoms: _192  and  _195
REMARK   75  A    between atoms: _195  and  _196
REMARK   76  A    between atoms: _199  and  _201
REMARK   77  A    between atoms: _201  and  _202
REMARK   78  A    between atoms: _201  and  _204
REMARK   79  A    between atoms: _207  and  _209
REMARK   80  A    between atoms: _209  and  _210
REMARK   81  A    between atoms: _209  and  _212
REMARK   82  A    between atoms: _215  and  _217
REMARK   83  A    between atoms: _217  and  _218
REMARK   84  A    between atoms: _221  and  _223
REMARK   85  A    between atoms: _234  and  _237
REMARK   86  A    between atoms: _237  and  _238
REMARK   87  A    between atoms: _238  and  _239
REMARK   88  A    between atoms: _244  and  _247
REMARK   89  A    between atoms: _247  and  _248
REMARK   90  A    between atoms: _253  and  _256
REMARK   91  A    between atoms: _256  and  _257
REMARK   92  A    between atoms: _262  and  _263
REMARK   93  A    between atoms: _271  and  _273
REMARK   94  A    between atoms: _273  and  _274
REMARK   95  A    between atoms: _277  and  _279
REMARK   96  A    between atoms: _279  and  _280
REMARK   97  A    between atoms: _279  and  _282
REMARK   98  A    between atoms: _282  and  _283
REMARK   99  A    between atoms: _286  and  _288
REMARK  100  A    between atoms: _288  and  _289
REMARK  101  A    between atoms: _288  and  _291
REMARK  102  A    between atoms: _291  and  _292
REMARK  103  A    between atoms: _295  and  _297
REMARK  104  A    between atoms: _297  and  _298
REMARK  105  A    between atoms: _300  and  _302
REMARK  106  A    between atoms: _302  and  _303
REMARK  107  A    between atoms: _302  and  _305
REMARK  108  A    between atoms: _305  and  _306
REMARK  109  A    between atoms: _309  and  _311
REMARK  110  A    between atoms: _311  and  _312
REMARK  111  A    between atoms: _311  and  _314
REMARK  112  A    between atoms: _314  and  _315
REMARK  113  A    between atoms: _318  and  _320
REMARK  114  A    between atoms: _320  and  _321
REMARK  115  A    between atoms: _320  and  _323
REMARK  116  A    between atoms: _323  and  _324
REMARK  117  A    between atoms: _329  and  _330
REMARK  118  A    between atoms: _332  and  _334
REMARK  119  A    between atoms: _334  and  _335
REMARK  120  A    between atoms: _334  and  _337
REMARK  121  A    between atoms: _337  and  _338
REMARK  122  A    between atoms: _338  and  _339
REMARK  123  A    between atoms: _344  and  _346
REMARK  124  A    between atoms: _346  and  _347
REMARK  125  A    between atoms: _349  and  _351
REMARK  126  A    between atoms: _351  and  _352
REMARK  127  A    between atoms: _351  and  _354
REMARK  128  A    between atoms: _354  and  _355
REMARK  129  A    between atoms: _360  and  _362
REMARK  130  A    between atoms: _362  and  _363
REMARK  131  A    between atoms: _362  and  _365
REMARK  132  A    between atoms: _365  and  _366
REMARK  133  A    between atoms: _366  and  _367
REMARK  134  A    between atoms: _367  and  _368
REMARK  135  A    between atoms: _368  and  ZN_631
REMARK  136  A    between atoms: _370  and  _372
REMARK  137  A    between atoms: _372  and  _373
REMARK  138  A    between atoms: _372  and  _375
REMARK  139  A    between atoms: _375  and  _376
REMARK  140  A    between atoms: _378  and  _380
REMARK  141  A    between atoms: _380  and  _381
REMARK  142  A    between atoms: _380  and  _383
REMARK  143  A    between atoms: _383  and  _384
REMARK  144  A    between atoms: _387  and  _389
REMARK  145  A    between atoms: _389  and  _390
REMARK  146  A    between atoms: _392  and  _394
REMARK  147  A    between atoms: _394  and  _395
REMARK  148  A    between atoms: _394  and  _397
REMARK  149  A    between atoms: _397  and  _398
REMARK  150  A    between atoms: _401  and  _403
REMARK  151  A    between atoms: _403  and  _404
REMARK  152  A    between atoms: _406  and  _408
REMARK  153  A    between atoms: _408  and  _409
REMARK  154  A    between atoms: _408  and  _411
REMARK  155  A    between atoms: _411  and  _412
REMARK  156  A    between atoms: _412  and  _413
REMARK  157  A    between atoms: _416  and  _418
REMARK  158  A    between atoms: _418  and  _419
REMARK  159  A    between atoms: _418  and  _421
REMARK  160  A    between atoms: _424  and  _426
REMARK  161  A    between atoms: _426  and  _427
REMARK  162  A    between atoms: _426  and  _429
REMARK  163  A    between atoms: _429  and  _430
REMARK  164  A    between atoms: _435  and  _436
REMARK  165  A    between atoms: _438  and  _440
REMARK  166  A    between atoms: _440  and  _441
REMARK  167  A    between atoms: _440  and  _443
REMARK  168  A    between atoms: _443  and  _444
REMARK  169  A    between atoms: _447  and  _449
REMARK  170  A    between atoms: _449  and  _450
REMARK  171  A    between atoms: _449  and  _452
REMARK  172  A    between atoms: _452  and  _453
REMARK  173  A    between atoms: _453  and  _454
REMARK  174  A    between atoms: _454  and  _455
REMARK  175  A    between atoms: _464  and  _466
REMARK  176  A    between atoms: _466  and  _467
REMARK  177  A    between atoms: _466  and  _469
REMARK  178  A    between atoms: _469  and  _470
REMARK  179  A    between atoms: _473  and  _475
REMARK  180  A    between atoms: _475  and  _476
REMARK  181  A    between atoms: _475  and  _478
REMARK  182  A    between atoms: _478  and  _479
REMARK  183  A    between atoms: _484  and  _486
REMARK  184  A    between atoms: _486  and  _487
REMARK  185  A    between atoms: _486  and  _489
REMARK  186  A    between atoms: _492  and  _494
REMARK  187  A    between atoms: _494  and  _495
REMARK  188  A    between atoms: _494  and  _497
REMARK  189  A    between atoms: _497  and  _498
REMARK  190  A    between atoms: _503  and  _505
REMARK  191  A    between atoms: _505  and  _506
REMARK  192  A    between atoms: _505  and  _508
REMARK  193  A    between atoms: _508  and  _509
REMARK  194  A    between atoms: _512  and  _514
REMARK  195  A    between atoms: _514  and  _515
REMARK  196  A    between atoms: _514  and  _517
REMARK  197  A    between atoms: _517  and  _518
REMARK  198  A    between atoms: _520  and  _522
REMARK  199  A    between atoms: _522  and  _523
REMARK  200  A    between atoms: _522  and  _525
REMARK  201  A    between atoms: _525  and  _526
REMARK  202  A    between atoms: _526  and  _527
REMARK  203  A    between atoms: _527  and  _528
REMARK  204  A    between atoms: _537  and  _539
REMARK  205  A    between atoms: _539  and  _540
REMARK  206  A    between atoms: _539  and  _542
REMARK  207  A    between atoms: _542  and  _543
REMARK  208  A    between atoms: _546  and  _548
REMARK  209  A    between atoms: _548  and  _549
REMARK  210  A    between atoms: _548  and  _551
REMARK  211  A    between atoms: _551  and  _552
REMARK  212  A    between atoms: _555  and  _557
REMARK  213  A    between atoms: _557  and  _558
REMARK  214  A    between atoms: _557  and  _560
REMARK  215  A    between atoms: _560  and  _561
REMARK  216  A    between atoms: _564  and  _566
REMARK  217  A    between atoms: _566  and  _567
REMARK  218  A    between atoms: _566  and  _569
REMARK  219  A    between atoms: _569  and  _570
REMARK  220  A    between atoms: _575  and  _576
REMARK  221  A    between atoms: _578  and  _580
REMARK  222  A    between atoms: _580  and  _581
REMARK  223  A    between atoms: _580  and  _583
REMARK  224  A    between atoms: _583  and  _584
REMARK  225  A    between atoms: _586  and  _588
REMARK  226  A    between atoms: _588  and  _589
REMARK  227  A    between atoms: _588  and  _591
REMARK  228  A    between atoms: _591  and  _592
REMARK  229  A    between atoms: _597  and  _598
REMARK  230  A    between atoms: _600  and  _602
REMARK  231  A    between atoms: _602  and  _603
REMARK  232  A    between atoms: _602  and  _605
REMARK  233  A    between atoms: _605  and  _606
REMARK  234  A    between atoms: _612  and  _614
REMARK  235  A    between atoms: _614  and  _615
REMARK  236  A    between atoms: _614  and  _617
REMARK  237  A    between atoms: _620  and  _622
REMARK  238  A    between atoms: _622  and  _623
REMARK  239  A    between atoms: _622  and  _625
REMARK  240  A    between atoms: _625  and  _626
REMARK                            x       y       z     vdW  Elec       q    Type
REMARK                         _______ _______ _______ _____ _____    ______ ____
ROOT
ATOM      1  O   HOH     1      52.265  13.694 -10.595  0.00  0.00    +0.000 OA
ENDROOT
TORSDOF 0
REMARK  Name = ../refined-set-2016/4tmn/4tmn_pocket.pdb
REMARK  240 active torsions:
REMARK  status: ('A' for Active; 'I' for Inactive)
REMARK    1  A    between atoms: _1  and  _3
REMARK    2  A    between atoms: _3  and  _4
REMARK    3  A    between atoms: _3  and  _6
REMARK    4  A    between atoms: _6  and  _7
REMARK    5  A    between atoms: _12  and  _13
REMARK    6  A    between atoms: _15  and  _17
REMARK    7  A    between atoms: _17  and  _18
REMARK    8  A    between atoms: _17  and  _20
REMARK    9  A    between atoms: _20  and  _21
REMARK   10  A    between atoms: _26  and  _27
REMARK   11  A    between atoms: _29  and  _31
REMARK   12  A    between atoms: _31  and  _32
REMARK   13  A    between atoms: _31  and  _34
REMARK   14  A    between atoms: _34  and  _35
REMARK   15  A    between atoms: _40  and  _42
REMARK   16  A    between atoms: _42  and  _43
REMARK   17  A    between atoms: _42  and  _45
REMARK   18  A    between atoms: _45  and  _46
REMARK   19  A    between atoms: _51  and  _53
REMARK   20  A    between atoms: _53  and  _54
REMARK   21  A    between atoms: _57  and  _59
REMARK   22  A    between atoms: _59  and  _60
REMARK   23  A    between atoms: _59  and  _62
REMARK   24  A    between atoms: _62  and  _63
REMARK   25  A    between atoms: _69  and  _71
REMARK   26  A    between atoms: _71  and  _72
REMARK   27  A    between atoms: _71  and  _74
REMARK   28  A    between atoms: _74  and  _75
REMARK   29  A    between atoms: _85  and  _87
REMARK   30  A    between atoms: _87  and  _88
REMARK   31  A    between atoms: _87  and  _90
REMARK   32  A    between atoms: _90  and  _91
REMARK   33  A    between atoms: _96  and  _98
REMARK   34  A    between atoms: _98  and  _99
REMARK   35  A    between atoms: _103  and  _104
REMARK   36  A    between atoms: _103  and  _106
REMARK   37  A    between atoms: _106  and  _107
REMARK   38  A    between atoms: _109  and  _111
REMARK   39  A    between atoms: _111  and  _112
REMARK   40  A    between atoms: _111  and  _114
REMARK   41  A    between atoms: _114  and  _115
REMARK   42  A    between atoms: _115  and  _116
REMARK   43  A    between atoms: _119  and  _121
REMARK   44  A    between atoms: _121  and  _122
REMARK   45  A    between atoms: _121  and  _124
REMARK   46  A    between atoms: _124  and  _125
REMARK   47  A    between atoms: _125  and  _126
REMARK   48  A    between atoms: _128  and  _130
REMARK   49  A    between atoms: _130  and  _131
REMARK   50  A    between atoms: _130  and  _133
REMARK   51  A    between atoms: _136  and  _138
REMARK   52  A    between atoms: _138  and  _139
REMARK   53  A    between atoms: _138  and  _141
REMARK   54  A    between atoms: _141  and  _142
REMARK   55  A    between atoms: _147  and  _148
REMARK   56  A    between atoms: _150  and  _152
REMARK   57  A    between atoms: _152  and  _153
REMARK   58  A    between atoms: _155  and  _157
REMARK   59  A    between atoms: _157  and  _158
REMARK   60  A    between atoms: _157  and  _160
REMARK   61  A    between atoms: _160  and  _161
REMARK   62  A    between atoms: _164  and  _166
REMARK   63  A    between atoms: _166  and  _167
REMARK   64  A    between atoms: _166  and  _169
REMARK   65  A    between atoms: _169  and  _170
REMARK   66  A    between atoms: _176  and  _178
REMARK   67  A    between atoms: _178  and  _179
REMARK   68  A    between atoms: _178  and  _181
REMARK   69  A    between atoms: _181  and  _182
REMARK   70  A    between atoms: _185  and  _187
REMARK   71  A    between atoms: _187  and  _188
REMARK   72  A    between atoms: _190  and  _192
REMARK   73  A    between atoms: _192  and  _193
REMARK   74  A    between atoms: _192  and  _195
REMARK   75  A    between atoms: _195  and  _196
REMARK   76  A    between atoms: _199  and  _201
REMARK   77  A    between atoms: _201  and  _202
REMARK   78  A    between atoms: _201  and  _204
REMARK   79  A    between atoms: _207  and  _209
REMARK   80  A    between atoms: _209  and  _210
REMARK   81  A    between atoms: _209  and  _212
REMARK   82  A    between atoms: _215  and  _217
REMARK   83  A    between atoms: _217  and  _218
REMARK   84  A    between atoms: _221  and  _223
REMARK   85  A    between atoms: _234  and  _237
REMARK   86  A    between atoms: _237  and  _238
REMARK   87  A    between atoms: _238  and  _239
REMARK   88  A    between atoms: _244  and  _247
REMARK   89  A    between atoms: _247  and  _248
REMARK   90  A    between atoms: _253  and  _256
REMARK   91  A    between atoms: _256  and  _257
REMARK   92  A    between atoms: _262  and  _263
REMARK   93  A    between atoms: _271  and  _273
REMARK   94  A    between atoms: _273  and  _274
REMARK   95  A    between atoms: _277  and  _279
REMARK   96  A    between atoms: _279  and  _280
REMARK   97  A    between atoms: _279  and  _282
REMARK   98  A    between atoms: _282  and  _283
REMARK   99  A    between atoms: _286  and  _288
REMARK  100  A    between atoms: _288  and  _289
REMARK  101  A    between atoms: _288  and  _291
REMARK  102  A    between atoms: _291  and  _292
REMARK  103  A    between atoms: _295  and  _297
REMARK  104  A    between atoms: _297  and  _298
REMARK  105  A    between atoms: _300  and  _302
REMARK  106  A    between atoms: _302  and  _303
REMARK  107  A    between atoms: _302  and  _305
REMARK  108  A    between atoms: _305  and  _306
REMARK  109  A    between atoms: _309  and  _311
REMARK  110  A    between atoms: _311  and  _312
REMARK  111  A    between atoms: _311  and  _314
REMARK  112  A    between atoms: _314  and  _315
REMARK  113  A    between atoms: _318  and  _320
REMARK  114  A    between atoms: _320  and  _321
REMARK  115  A    between atoms: _320  and  _323
REMARK  116  A    between atoms: _323  and  _324
REMARK  117  A    between atoms: _329  and  _330
REMARK  118  A    between atoms: _332  and  _334
REMARK  119  A    between atoms: _334  and  _335
REMARK  120  A    between atoms: _334  and  _337
REMARK  121  A    between atoms: _337  and  _338
REMARK  122  A    between atoms: _338  and  _339
REMARK  123  A    between atoms: _344  and  _346
REMARK  124  A    between atoms: _346  and  _347
REMARK  125  A    between atoms: _349  and  _351
REMARK  126  A    between atoms: _351  and  _352
REMARK  127  A    between atoms: _351  and  _354
REMARK  128  A    between atoms: _354  and  _355
REMARK  129  A    between atoms: _360  and  _362
REMARK  130  A    between atoms: _362  and  _363
REMARK  131  A    between atoms: _362  and  _365
REMARK  132  A    between atoms: _365  and  _366
REMARK  133  A    between atoms: _366  and  _367
REMARK  134  A    between atoms: _367  and  _368
REMARK  135  A    between atoms: _368  and  ZN_631
REMARK  136  A    between atoms: _370  and  _372
REMARK  137  A    between atoms: _372  and  _373
REMARK  138  A    between atoms: _372  and  _375
REMARK  139  A    between atoms: _375  and  _376
REMARK  140  A    between atoms: _378  and  _380
REMARK  141  A    between atoms: _380  and  _381
REMARK  142  A    between atoms: _380  and  _383
REMARK  143  A    between atoms: _383  and  _384
REMARK  144  A    between atoms: _387  and  _389
REMARK  145  A    between atoms: _389  and  _390
REMARK  146  A    between atoms: _392  and  _394
REMARK  147  A    between atoms: _394  and  _395
REMARK  148  A    between atoms: _394  and  _397
REMARK  149  A    between atoms: _397  and  _398
REMARK  150  A    between atoms: _401  and  _403
REMARK  151  A    between atoms: _403  and  _404
REMARK  152  A    between atoms: _406  and  _408
REMARK  153  A    between atoms: _408  and  _409
REMARK  154  A    between atoms: _408  and  _411
REMARK  155  A    between atoms: _411  and  _412
REMARK  156  A    between atoms: _412  and  _413
REMARK  157  A    between atoms: _416  and  _418
REMARK  158  A    between atoms: _418  and  _419
REMARK  159  A    between atoms: _418  and  _421
REMARK  160  A    between atoms: _424  and  _426
REMARK  161  A    between atoms: _426  and  _427
REMARK  162  A    between atoms: _426  and  _429
REMARK  163  A    between atoms: _429  and  _430
REMARK  164  A    between atoms: _435  and  _436
REMARK  165  A    between atoms: _438  and  _440
REMARK  166  A    between atoms: _440  and  _441
REMARK  167  A    between atoms: _440  and  _443
REMARK  168  A    between atoms: _443  and  _444
REMARK  169  A    between atoms: _447  and  _449
REMARK  170  A    between atoms: _449  and  _450
REMARK  171  A    between atoms: _449  and  _452
REMARK  172  A    between atoms: _452  and  _453
REMARK  173  A    between atoms: _453  and  _454
REMARK  174  A    between atoms: _454  and  _455
REMARK  175  A    between atoms: _464  and  _466
REMARK  176  A    between atoms: _466  and  _467
REMARK  177  A    between atoms: _466  and  _469
REMARK  178  A    between atoms: _469  and  _470
REMARK  179  A    between atoms: _473  and  _475
REMARK  180  A    between atoms: _475  and  _476
REMARK  181  A    between atoms: _475  and  _478
REMARK  182  A    between atoms: _478  and  _479
REMARK  183  A    between atoms: _484  and  _486
REMARK  184  A    between atoms: _486  and  _487
REMARK  185  A    between atoms: _486  and  _489
REMARK  186  A    between atoms: _492  and  _494
REMARK  187  A    between atoms: _494  and  _495
REMARK  188  A    between atoms: _494  and  _497
REMARK  189  A    between atoms: _497  and  _498
REMARK  190  A    between atoms: _503  and  _505
REMARK  191  A    between atoms: _505  and  _506
REMARK  192  A    between atoms: _505  and  _508
REMARK  193  A    between atoms: _508  and  _509
REMARK  194  A    between atoms: _512  and  _514
REMARK  195  A    between atoms: _514  and  _515
REMARK  196  A    between atoms: _514  and  _517
REMARK  197  A    between atoms: _517  and  _518
REMARK  198  A    between atoms: _520  and  _522
REMARK  199  A    between atoms: _522  and  _523
REMARK  200  A    between atoms: _522  and  _525
REMARK  201  A    between atoms: _525  and  _526
REMARK  202  A    between atoms: _526  and  _527
REMARK  203  A    between atoms: _527  and  _528
REMARK  204  A    between atoms: _537  and  _539
REMARK  205  A    between atoms: _539  and  _540
REMARK  206  A    between atoms: _539  and  _542
REMARK  207  A    between atoms: _542  and  _543
REMARK  208  A    between atoms: _546  and  _548
REMARK  209  A    between atoms: _548  and  _549
REMARK  210  A    between atoms: _548  and  _551
REMARK  211  A    between atoms: _551  and  _552
REMARK  212  A    between atoms: _555  and  _557
REMARK  213  A    between atoms: _557  and  _558
REMARK  214  A    between atoms: _557  and  _560
REMARK  215  A    between atoms: _560  and  _561
REMARK  216  A    between atoms: _564  and  _566
REMARK  217  A    between atoms: _566  and  _567
REMARK  218  A    between atoms: _566  and  _569
REMARK  219  A    between atoms: _569  and  _570
REMARK  220  A    between atoms: _575  and  _576
REMARK  221  A    between atoms: _578  and  _580
REMARK  222  A    between atoms: _580  and  _581
REMARK  223  A    between atoms: _580  and  _583
REMARK  224  A    between atoms: _583  and  _584
REMARK  225  A    between atoms: _586  and  _588
REMARK  226  A    between atoms: _588  and  _589
REMARK  227  A    between atoms: _588  and  _591
REMARK  228  A    between atoms: _591  and  _592
REMARK  229  A    between atoms: _597  and  _598
REMARK  230  A    between atoms: _600  and  _602
REMARK  231  A    between atoms: _602  and  _603
REMARK  232  A    between atoms: _602  and  _605
REMARK  233  A    between atoms: _605  and  _606
REMARK  234  A    between atoms: _612  and  _614
REMARK  235  A    between atoms: _614  and  _615
REMARK  236  A    between atoms: _614  and  _617
REMARK  237  A    between atoms: _620  and  _622
REMARK  238  A    between atoms: _622  and  _623
REMARK  239  A    between atoms: _622  and  _625
REMARK  240  A    between atoms: _625  and  _626
REMARK                            x       y       z     vdW  Elec       q    Type
REMARK                         _______ _______ _______ _____ _____    ______ ____
ROOT
ATOM      1  O   HOH     1      59.637  17.562  -6.421  0.00  0.00    +0.000 OA
ENDROOT
TORSDOF 0
REMARK  Name = ../refined-set-2016/4tmn/4tmn_pocket.pdb
REMARK  240 active torsions:
REMARK  status: ('A' for Active; 'I' for Inactive)
REMARK    1  A    between atoms: _1  and  _3
REMARK    2  A    between atoms: _3  and  _4
REMARK    3  A    between atoms: _3  and  _6
REMARK    4  A    between atoms: _6  and  _7
REMARK    5  A    between atoms: _12  and  _13
REMARK    6  A    between atoms: _15  and  _17
REMARK    7  A    between atoms: _17  and  _18
REMARK    8  A    between atoms: _17  and  _20
REMARK    9  A    between atoms: _20  and  _21
REMARK   10  A    between atoms: _26  and  _27
REMARK   11  A    between atoms: _29  and  _31
REMARK   12  A    between atoms: _31  and  _32
REMARK   13  A    between atoms: _31  and  _34
REMARK   14  A    between atoms: _34  and  _35
REMARK   15  A    between atoms: _40  and  _42
REMARK   16  A    between atoms: _42  and  _43
REMARK   17  A    between atoms: _42  and  _45
REMARK   18  A    between atoms: _45  and  _46
REMARK   19  A    between atoms: _51  and  _53
REMARK   20  A    between atoms: _53  and  _54
REMARK   21  A    between atoms: _57  and  _59
REMARK   22  A    between atoms: _59  and  _60
REMARK   23  A    between atoms: _59  and  _62
REMARK   24  A    between atoms: _62  and  _63
REMARK   25  A    between atoms: _69  and  _71
REMARK   26  A    between atoms: _71  and  _72
REMARK   27  A    between atoms: _71  and  _74
REMARK   28  A    between atoms: _74  and  _75
REMARK   29  A    between atoms: _85  and  _87
REMARK   30  A    between atoms: _87  and  _88
REMARK   31  A    between atoms: _87  and  _90
REMARK   32  A    between atoms: _90  and  _91
REMARK   33  A    between atoms: _96  and  _98
REMARK   34  A    between atoms: _98  and  _99
REMARK   35  A    between atoms: _103  and  _104
REMARK   36  A    between atoms: _103  and  _106
REMARK   37  A    between atoms: _106  and  _107
REMARK   38  A    between atoms: _109  and  _111
REMARK   39  A    between atoms: _111  and  _112
REMARK   40  A    between atoms: _111  and  _114
REMARK   41  A    between atoms: _114  and  _115
REMARK   42  A    between atoms: _115  and  _116
REMARK   43  A    between atoms: _119  and  _121
REMARK   44  A    between atoms: _121  and  _122
REMARK   45  A    between atoms: _121  and  _124
REMARK   46  A    between atoms: _124  and  _125
REMARK   47  A    between atoms: _125  and  _126
REMARK   48  A    between atoms: _128  and  _130
REMARK   49  A    between atoms: _130  and  _131
REMARK   50  A    between atoms: _130  and  _133
REMARK   51  A    between atoms: _136  and  _138
REMARK   52  A    between atoms: _138  and  _139
REMARK   53  A    between atoms: _138  and  _141
REMARK   54  A    between atoms: _141  and  _142
REMARK   55  A    between atoms: _147  and  _148
REMARK   56  A    between atoms: _150  and  _152
REMARK   57  A    between atoms: _152  and  _153
REMARK   58  A    between atoms: _155  and  _157
REMARK   59  A    between atoms: _157  and  _158
REMARK   60  A    between atoms: _157  and  _160
REMARK   61  A    between atoms: _160  and  _161
REMARK   62  A    between atoms: _164  and  _166
REMARK   63  A    between atoms: _166  and  _167
REMARK   64  A    between atoms: _166  and  _169
REMARK   65  A    between atoms: _169  and  _170
REMARK   66  A    between atoms: _176  and  _178
REMARK   67  A    between atoms: _178  and  _179
REMARK   68  A    between atoms: _178  and  _181
REMARK   69  A    between atoms: _181  and  _182
REMARK   70  A    between atoms: _185  and  _187
REMARK   71  A    between atoms: _187  and  _188
REMARK   72  A    between atoms: _190  and  _192
REMARK   73  A    between atoms: _192  and  _193
REMARK   74  A    between atoms: _192  and  _195
REMARK   75  A    between atoms: _195  and  _196
REMARK   76  A    between atoms: _199  and  _201
REMARK   77  A    between atoms: _201  and  _202
REMARK   78  A    between atoms: _201  and  _204
REMARK   79  A    between atoms: _207  and  _209
REMARK   80  A    between atoms: _209  and  _210
REMARK   81  A    between atoms: _209  and  _212
REMARK   82  A    between atoms: _215  and  _217
REMARK   83  A    between atoms: _217  and  _218
REMARK   84  A    between atoms: _221  and  _223
REMARK   85  A    between atoms: _234  and  _237
REMARK   86  A    between atoms: _237  and  _238
REMARK   87  A    between atoms: _238  and  _239
REMARK   88  A    between atoms: _244  and  _247
REMARK   89  A    between atoms: _247  and  _248
REMARK   90  A    between atoms: _253  and  _256
REMARK   91  A    between atoms: _256  and  _257
REMARK   92  A    between atoms: _262  and  _263
REMARK   93  A    between atoms: _271  and  _273
REMARK   94  A    between atoms: _273  and  _274
REMARK   95  A    between atoms: _277  and  _279
REMARK   96  A    between atoms: _279  and  _280
REMARK   97  A    between atoms: _279  and  _282
REMARK   98  A    between atoms: _282  and  _283
REMARK   99  A    between atoms: _286  and  _288
REMARK  100  A    between atoms: _288  and  _289
REMARK  101  A    between atoms: _288  and  _291
REMARK  102  A    between atoms: _291  and  _292
REMARK  103  A    between atoms: _295  and  _297
REMARK  104  A    between atoms: _297  and  _298
REMARK  105  A    between atoms: _300  and  _302
REMARK  106  A    between atoms: _302  and  _303
REMARK  107  A    between atoms: _302  and  _305
REMARK  108  A    between atoms: _305  and  _306
REMARK  109  A    between atoms: _309  and  _311
REMARK  110  A    between atoms: _311  and  _312
REMARK  111  A    between atoms: _311  and  _314
REMARK  112  A    between atoms: _314  and  _315
REMARK  113  A    between atoms: _318  and  _320
REMARK  114  A    between atoms: _320  and  _321
REMARK  115  A    between atoms: _320  and  _323
REMARK  116  A    between atoms: _323  and  _324
REMARK  117  A    between atoms: _329  and  _330
REMARK  118  A    between atoms: _332  and  _334
REMARK  119  A    between atoms: _334  and  _335
REMARK  120  A    between atoms: _334  and  _337
REMARK  121  A    between atoms: _337  and  _338
REMARK  122  A    between atoms: _338  and  _339
REMARK  123  A    between atoms: _344  and  _346
REMARK  124  A    between atoms: _346  and  _347
REMARK  125  A    between atoms: _349  and  _351
REMARK  126  A    between atoms: _351  and  _352
REMARK  127  A    between atoms: _351  and  _354
REMARK  128  A    between atoms: _354  and  _355
REMARK  129  A    between atoms: _360  and  _362
REMARK  130  A    between atoms: _362  and  _363
REMARK  131  A    between atoms: _362  and  _365
REMARK  132  A    between atoms: _365  and  _366
REMARK  133  A    between atoms: _366  and  _367
REMARK  134  A    between atoms: _367  and  _368
REMARK  135  A    between atoms: _368  and  ZN_631
REMARK  136  A    between atoms: _370  and  _372
REMARK  137  A    between atoms: _372  and  _373
REMARK  138  A    between atoms: _372  and  _375
REMARK  139  A    between atoms: _375  and  _376
REMARK  140  A    between atoms: _378  and  _380
REMARK  141  A    between atoms: _380  and  _381
REMARK  142  A    between atoms: _380  and  _383
REMARK  143  A    between atoms: _383  and  _384
REMARK  144  A    between atoms: _387  and  _389
REMARK  145  A    between atoms: _389  and  _390
REMARK  146  A    between atoms: _392  and  _394
REMARK  147  A    between atoms: _394  and  _395
REMARK  148  A    between atoms: _394  and  _397
REMARK  149  A    between atoms: _397  and  _398
REMARK  150  A    between atoms: _401  and  _403
REMARK  151  A    between atoms: _403  and  _404
REMARK  152  A    between atoms: _406  and  _408
REMARK  153  A    between atoms: _408  and  _409
REMARK  154  A    between atoms: _408  and  _411
REMARK  155  A    between atoms: _411  and  _412
REMARK  156  A    between atoms: _412  and  _413
REMARK  157  A    between atoms: _416  and  _418
REMARK  158  A    between atoms: _418  and  _419
REMARK  159  A    between atoms: _418  and  _421
REMARK  160  A    between atoms: _424  and  _426
REMARK  161  A    between atoms: _426  and  _427
REMARK  162  A    between atoms: _426  and  _429
REMARK  163  A    between atoms: _429  and  _430
REMARK  164  A    between atoms: _435  and  _436
REMARK  165  A    between atoms: _438  and  _440
REMARK  166  A    between atoms: _440  and  _441
REMARK  167  A    between atoms: _440  and  _443
REMARK  168  A    between atoms: _443  and  _444
REMARK  169  A    between atoms: _447  and  _449
REMARK  170  A    between atoms: _449  and  _450
REMARK  171  A    between atoms: _449  and  _452
REMARK  172  A    between atoms: _452  and  _453
REMARK  173  A    between atoms: _453  and  _454
REMARK  174  A    between atoms: _454  and  _455
REMARK  175  A    between atoms: _464  and  _466
REMARK  176  A    between atoms: _466  and  _467
REMARK  177  A    between atoms: _466  and  _469
REMARK  178  A    between atoms: _469  and  _470
REMARK  179  A    between atoms: _473  and  _475
REMARK  180  A    between atoms: _475  and  _476
REMARK  181  A    between atoms: _475  and  _478
REMARK  182  A    between atoms: _478  and  _479
REMARK  183  A    between atoms: _484  and  _486
REMARK  184  A    between atoms: _486  and  _487
REMARK  185  A    between atoms: _486  and  _489
REMARK  186  A    between atoms: _492  and  _494
REMARK  187  A    between atoms: _494  and  _495
REMARK  188  A    between atoms: _494  and  _497
REMARK  189  A    between atoms: _497  and  _498
REMARK  190  A    between atoms: _503  and  _505
REMARK  191  A    between atoms: _505  and  _506
REMARK  192  A    between atoms: _505  and  _508
REMARK  193  A    between atoms: _508  and  _509
REMARK  194  A    between atoms: _512  and  _514
REMARK  195  A    between atoms: _514  and  _515
REMARK  196  A    between atoms: _514  and  _517
REMARK  197  A    between atoms: _517  and  _518
REMARK  198  A    between atoms: _520  and  _522
REMARK  199  A    between atoms: _522  and  _523
REMARK  200  A    between atoms: _522  and  _525
REMARK  201  A    between atoms: _525  and  _526
REMARK  202  A    between atoms: _526  and  _527
REMARK  203  A    between atoms: _527  and  _528
REMARK  204  A    between atoms: _537  and  _539
REMARK  205  A    between atoms: _539  and  _540
REMARK  206  A    between atoms: _539  and  _542
REMARK  207  A    between atoms: _542  and  _543
REMARK  208  A    between atoms: _546  and  _548
REMARK  209  A    between atoms: _548  and  _549
REMARK  210  A    between atoms: _548  and  _551
REMARK  211  A    between atoms: _551  and  _552
REMARK  212  A    between atoms: _555  and  _557
REMARK  213  A    between atoms: _557  and  _558
REMARK  214  A    between atoms: _557  and  _560
REMARK  215  A    between atoms: _560  and  _561
REMARK  216  A    between atoms: _564  and  _566
REMARK  217  A    between atoms: _566  and  _567
REMARK  218  A    between atoms: _566  and  _569
REMARK  219  A    between atoms: _569  and  _570
REMARK  220  A    between atoms: _575  and  _576
REMARK  221  A    between atoms: _578  and  _580
REMARK  222  A    between atoms: _580  and  _581
REMARK  223  A    between atoms: _580  and  _583
REMARK  224  A    between atoms: _583  and  _584
REMARK  225  A    between atoms: _586  and  _588
REMARK  226  A    between atoms: _588  and  _589
REMARK  227  A    between atoms: _588  and  _591
REMARK  228  A    between atoms: _591  and  _592
REMARK  229  A    between atoms: _597  and  _598
REMARK  230  A    between atoms: _600  and  _602
REMARK  231  A    between atoms: _602  and  _603
REMARK  232  A    between atoms: _602  and  _605
REMARK  233  A    between atoms: _605  and  _606
REMARK  234  A    between atoms: _612  and  _614
REMARK  235  A    between atoms: _614  and  _615
REMARK  236  A    between atoms: _614  and  _617
REMARK  237  A    between atoms: _620  and  _622
REMARK  238  A    between atoms: _622  and  _623
REMARK  239  A    between atoms: _622  and  _625
REMARK  240  A    between atoms: _625  and  _626
REMARK                            x       y       z     vdW  Elec       q    Type
REMARK                         _______ _______ _______ _____ _____    ______ ____
ROOT
ATOM      1  O   HOH     1      58.042  12.840  -3.297  0.00  0.00    +0.000 OA
ENDROOT
TORSDOF 0
REMARK  Name = ../refined-set-2016/4tmn/4tmn_pocket.pdb
REMARK  240 active torsions:
REMARK  status: ('A' for Active; 'I' for Inactive)
REMARK    1  A    between atoms: _1  and  _3
REMARK    2  A    between atoms: _3  and  _4
REMARK    3  A    between atoms: _3  and  _6
REMARK    4  A    between atoms: _6  and  _7
REMARK    5  A    between atoms: _12  and  _13
REMARK    6  A    between atoms: _15  and  _17
REMARK    7  A    between atoms: _17  and  _18
REMARK    8  A    between atoms: _17  and  _20
REMARK    9  A    between atoms: _20  and  _21
REMARK   10  A    between atoms: _26  and  _27
REMARK   11  A    between atoms: _29  and  _31
REMARK   12  A    between atoms: _31  and  _32
REMARK   13  A    between atoms: _31  and  _34
REMARK   14  A    between atoms: _34  and  _35
REMARK   15  A    between atoms: _40  and  _42
REMARK   16  A    between atoms: _42  and  _43
REMARK   17  A    between atoms: _42  and  _45
REMARK   18  A    between atoms: _45  and  _46
REMARK   19  A    between atoms: _51  and  _53
REMARK   20  A    between atoms: _53  and  _54
REMARK   21  A    between atoms: _57  and  _59
REMARK   22  A    between atoms: _59  and  _60
REMARK   23  A    between atoms: _59  and  _62
REMARK   24  A    between atoms: _62  and  _63
REMARK   25  A    between atoms: _69  and  _71
REMARK   26  A    between atoms: _71  and  _72
REMARK   27  A    between atoms: _71  and  _74
REMARK   28  A    between atoms: _74  and  _75
REMARK   29  A    between atoms: _85  and  _87
REMARK   30  A    between atoms: _87  and  _88
REMARK   31  A    between atoms: _87  and  _90
REMARK   32  A    between atoms: _90  and  _91
REMARK   33  A    between atoms: _96  and  _98
REMARK   34  A    between atoms: _98  and  _99
REMARK   35  A    between atoms: _103  and  _104
REMARK   36  A    between atoms: _103  and  _106
REMARK   37  A    between atoms: _106  and  _107
REMARK   38  A    between atoms: _109  and  _111
REMARK   39  A    between atoms: _111  and  _112
REMARK   40  A    between atoms: _111  and  _114
REMARK   41  A    between atoms: _114  and  _115
REMARK   42  A    between atoms: _115  and  _116
REMARK   43  A    between atoms: _119  and  _121
REMARK   44  A    between atoms: _121  and  _122
REMARK   45  A    between atoms: _121  and  _124
REMARK   46  A    between atoms: _124  and  _125
REMARK   47  A    between atoms: _125  and  _126
REMARK   48  A    between atoms: _128  and  _130
REMARK   49  A    between atoms: _130  and  _131
REMARK   50  A    between atoms: _130  and  _133
REMARK   51  A    between atoms: _136  and  _138
REMARK   52  A    between atoms: _138  and  _139
REMARK   53  A    between atoms: _138  and  _141
REMARK   54  A    between atoms: _141  and  _142
REMARK   55  A    between atoms: _147  and  _148
REMARK   56  A    between atoms: _150  and  _152
REMARK   57  A    between atoms: _152  and  _153
REMARK   58  A    between atoms: _155  and  _157
REMARK   59  A    between atoms: _157  and  _158
REMARK   60  A    between atoms: _157  and  _160
REMARK   61  A    between atoms: _160  and  _161
REMARK   62  A    between atoms: _164  and  _166
REMARK   63  A    between atoms: _166  and  _167
REMARK   64  A    between atoms: _166  and  _169
REMARK   65  A    between atoms: _169  and  _170
REMARK   66  A    between atoms: _176  and  _178
REMARK   67  A    between atoms: _178  and  _179
REMARK   68  A    between atoms: _178  and  _181
REMARK   69  A    between atoms: _181  and  _182
REMARK   70  A    between atoms: _185  and  _187
REMARK   71  A    between atoms: _187  and  _188
REMARK   72  A    between atoms: _190  and  _192
REMARK   73  A    between atoms: _192  and  _193
REMARK   74  A    between atoms: _192  and  _195
REMARK   75  A    between atoms: _195  and  _196
REMARK   76  A    between atoms: _199  and  _201
REMARK   77  A    between atoms: _201  and  _202
REMARK   78  A    between atoms: _201  and  _204
REMARK   79  A    between atoms: _207  and  _209
REMARK   80  A    between atoms: _209  and  _210
REMARK   81  A    between atoms: _209  and  _212
REMARK   82  A    between atoms: _215  and  _217
REMARK   83  A    between atoms: _217  and  _218
REMARK   84  A    between atoms: _221  and  _223
REMARK   85  A    between atoms: _234  and  _237
REMARK   86  A    between atoms: _237  and  _238
REMARK   87  A    between atoms: _238  and  _239
REMARK   88  A    between atoms: _244  and  _247
REMARK   89  A    between atoms: _247  and  _248
REMARK   90  A    between atoms: _253  and  _256
REMARK   91  A    between atoms: _256  and  _257
REMARK   92  A    between atoms: _262  and  _263
REMARK   93  A    between atoms: _271  and  _273
REMARK   94  A    between atoms: _273  and  _274
REMARK   95  A    between atoms: _277  and  _279
REMARK   96  A    between atoms: _279  and  _280
REMARK   97  A    between atoms: _279  and  _282
REMARK   98  A    between atoms: _282  and  _283
REMARK   99  A    between atoms: _286  and  _288
REMARK  100  A    between atoms: _288  and  _289
REMARK  101  A    between atoms: _288  and  _291
REMARK  102  A    between atoms: _291  and  _292
REMARK  103  A    between atoms: _295  and  _297
REMARK  104  A    between atoms: _297  and  _298
REMARK  105  A    between atoms: _300  and  _302
REMARK  106  A    between atoms: _302  and  _303
REMARK  107  A    between atoms: _302  and  _305
REMARK  108  A    between atoms: _305  and  _306
REMARK  109  A    between atoms: _309  and  _311
REMARK  110  A    between atoms: _311  and  _312
REMARK  111  A    between atoms: _311  and  _314
REMARK  112  A    between atoms: _314  and  _315
REMARK  113  A    between atoms: _318  and  _320
REMARK  114  A    between atoms: _320  and  _321
REMARK  115  A    between atoms: _320  and  _323
REMARK  116  A    between atoms: _323  and  _324
REMARK  117  A    between atoms: _329  and  _330
REMARK  118  A    between atoms: _332  and  _334
REMARK  119  A    between atoms: _334  and  _335
REMARK  120  A    between atoms: _334  and  _337
REMARK  121  A    between atoms: _337  and  _338
REMARK  122  A    between atoms: _338  and  _339
REMARK  123  A    between atoms: _344  and  _346
REMARK  124  A    between atoms: _346  and  _347
REMARK  125  A    between atoms: _349  and  _351
REMARK  126  A    between atoms: _351  and  _352
REMARK  127  A    between atoms: _351  and  _354
REMARK  128  A    between atoms: _354  and  _355
REMARK  129  A    between atoms: _360  and  _362
REMARK  130  A    between atoms: _362  and  _363
REMARK  131  A    between atoms: _362  and  _365
REMARK  132  A    between atoms: _365  and  _366
REMARK  133  A    between atoms: _366  and  _367
REMARK  134  A    between atoms: _367  and  _368
REMARK  135  A    between atoms: _368  and  ZN_631
REMARK  136  A    between atoms: _370  and  _372
REMARK  137  A    between atoms: _372  and  _373
REMARK  138  A    between atoms: _372  and  _375
REMARK  139  A    between atoms: _375  and  _376
REMARK  140  A    between atoms: _378  and  _380
REMARK  141  A    between atoms: _380  and  _381
REMARK  142  A    between atoms: _380  and  _383
REMARK  143  A    between atoms: _383  and  _384
REMARK  144  A    between atoms: _387  and  _389
REMARK  145  A    between atoms: _389  and  _390
REMARK  146  A    between atoms: _392  and  _394
REMARK  147  A    between atoms: _394  and  _395
REMARK  148  A    between atoms: _394  and  _397
REMARK  149  A    between atoms: _397  and  _398
REMARK  150  A    between atoms: _401  and  _403
REMARK  151  A    between atoms: _403  and  _404
REMARK  152  A    between atoms: _406  and  _408
REMARK  153  A    between atoms: _408  and  _409
REMARK  154  A    between atoms: _408  and  _411
REMARK  155  A    between atoms: _411  and  _412
REMARK  156  A    between atoms: _412  and  _413
REMARK  157  A    between atoms: _416  and  _418
REMARK  158  A    between atoms: _418  and  _419
REMARK  159  A    between atoms: _418  and  _421
REMARK  160  A    between atoms: _424  and  _426
REMARK  161  A    between atoms: _426  and  _427
REMARK  162  A    between atoms: _426  and  _429
REMARK  163  A    between atoms: _429  and  _430
REMARK  164  A    between atoms: _435  and  _436
REMARK  165  A    between atoms: _438  and  _440
REMARK  166  A    between atoms: _440  and  _441
REMARK  167  A    between atoms: _440  and  _443
REMARK  168  A    between atoms: _443  and  _444
REMARK  169  A    between atoms: _447  and  _449
REMARK  170  A    between atoms: _449  and  _450
REMARK  171  A    between atoms: _449  and  _452
REMARK  172  A    between atoms: _452  and  _453
REMARK  173  A    between atoms: _453  and  _454
REMARK  174  A    between atoms: _454  and  _455
REMARK  175  A    between atoms: _464  and  _466
REMARK  176  A    between atoms: _466  and  _467
REMARK  177  A    between atoms: _466  and  _469
REMARK  178  A    between atoms: _469  and  _470
REMARK  179  A    between atoms: _473  and  _475
REMARK  180  A    between atoms: _475  and  _476
REMARK  181  A    between atoms: _475  and  _478
REMARK  182  A    between atoms: _478  and  _479
REMARK  183  A    between atoms: _484  and  _486
REMARK  184  A    between atoms: _486  and  _487
REMARK  185  A    between atoms: _486  and  _489
REMARK  186  A    between atoms: _492  and  _494
REMARK  187  A    between atoms: _494  and  _495
REMARK  188  A    between atoms: _494  and  _497
REMARK  189  A    between atoms: _497  and  _498
REMARK  190  A    between atoms: _503  and  _505
REMARK  191  A    between atoms: _505  and  _506
REMARK  192  A    between atoms: _505  and  _508
REMARK  193  A    between atoms: _508  and  _509
REMARK  194  A    between atoms: _512  and  _514
REMARK  195  A    between atoms: _514  and  _515
REMARK  196  A    between atoms: _514  and  _517
REMARK  197  A    between atoms: _517  and  _518
REMARK  198  A    between atoms: _520  and  _522
REMARK  199  A    between atoms: _522  and  _523
REMARK  200  A    between atoms: _522  and  _525
REMARK  201  A    between atoms: _525  and  _526
REMARK  202  A    between atoms: _526  and  _527
REMARK  203  A    between atoms: _527  and  _528
REMARK  204  A    between atoms: _537  and  _539
REMARK  205  A    between atoms: _539  and  _540
REMARK  206  A    between atoms: _539  and  _542
REMARK  207  A    between atoms: _542  and  _543
REMARK  208  A    between atoms: _546  and  _548
REMARK  209  A    between atoms: _548  and  _549
REMARK  210  A    between atoms: _548  and  _551
REMARK  211  A    between atoms: _551  and  _552
REMARK  212  A    between atoms: _555  and  _557
REMARK  213  A    between atoms: _557  and  _558
REMARK  214  A    between atoms: _557  and  _560
REMARK  215  A    between atoms: _560  and  _561
REMARK  216  A    between atoms: _564  and  _566
REMARK  217  A    between atoms: _566  and  _567
REMARK  218  A    between atoms: _566  and  _569
REMARK  219  A    between atoms: _569  and  _570
REMARK  220  A    between atoms: _575  and  _576
REMARK  221  A    between atoms: _578  and  _580
REMARK  222  A    between atoms: _580  and  _581
REMARK  223  A    between atoms: _580  and  _583
REMARK  224  A    between atoms: _583  and  _584
REMARK  225  A    between atoms: _586  and  _588
REMARK  226  A    between atoms: _588  and  _589
REMARK  227  A    between atoms: _588  and  _591
REMARK  228  A    between atoms: _591  and  _592
REMARK  229  A    between atoms: _597  and  _598
REMARK  230  A    between atoms: _600  and  _602
REMARK  231  A    between atoms: _602  and  _603
REMARK  232  A    between atoms: _602  and  _605
REMARK  233  A    between atoms: _605  and  _606
REMARK  234  A    between atoms: _612  and  _614
REMARK  235  A    between atoms: _614  and  _615
REMARK  236  A    between atoms: _614  and  _617
REMARK  237  A    between atoms: _620  and  _622
REMARK  238  A    between atoms: _622  and  _623
REMARK  239  A    between atoms: _622  and  _625
REMARK  240  A    between atoms: _625  and  _626
REMARK                            x       y       z     vdW  Elec       q    Type
REMARK                         _______ _______ _______ _____ _____    ______ ____
ROOT
ATOM      1  O   HOH     1      50.993  19.936 -18.470  0.00  0.00    +0.000 OA
ENDROOT
TORSDOF 0
REMARK  Name = ../refined-set-2016/4tmn/4tmn_pocket.pdb
REMARK  240 active torsions:
REMARK  status: ('A' for Active; 'I' for Inactive)
REMARK    1  A    between atoms: _1  and  _3
REMARK    2  A    between atoms: _3  and  _4
REMARK    3  A    between atoms: _3  and  _6
REMARK    4  A    between atoms: _6  and  _7
REMARK    5  A    between atoms: _12  and  _13
REMARK    6  A    between atoms: _15  and  _17
REMARK    7  A    between atoms: _17  and  _18
REMARK    8  A    between atoms: _17  and  _20
REMARK    9  A    between atoms: _20  and  _21
REMARK   10  A    between atoms: _26  and  _27
REMARK   11  A    between atoms: _29  and  _31
REMARK   12  A    between atoms: _31  and  _32
REMARK   13  A    between atoms: _31  and  _34
REMARK   14  A    between atoms: _34  and  _35
REMARK   15  A    between atoms: _40  and  _42
REMARK   16  A    between atoms: _42  and  _43
REMARK   17  A    between atoms: _42  and  _45
REMARK   18  A    between atoms: _45  and  _46
REMARK   19  A    between atoms: _51  and  _53
REMARK   20  A    between atoms: _53  and  _54
REMARK   21  A    between atoms: _57  and  _59
REMARK   22  A    between atoms: _59  and  _60
REMARK   23  A    between atoms: _59  and  _62
REMARK   24  A    between atoms: _62  and  _63
REMARK   25  A    between atoms: _69  and  _71
REMARK   26  A    between atoms: _71  and  _72
REMARK   27  A    between atoms: _71  and  _74
REMARK   28  A    between atoms: _74  and  _75
REMARK   29  A    between atoms: _85  and  _87
REMARK   30  A    between atoms: _87  and  _88
REMARK   31  A    between atoms: _87  and  _90
REMARK   32  A    between atoms: _90  and  _91
REMARK   33  A    between atoms: _96  and  _98
REMARK   34  A    between atoms: _98  and  _99
REMARK   35  A    between atoms: _103  and  _104
REMARK   36  A    between atoms: _103  and  _106
REMARK   37  A    between atoms: _106  and  _107
REMARK   38  A    between atoms: _109  and  _111
REMARK   39  A    between atoms: _111  and  _112
REMARK   40  A    between atoms: _111  and  _114
REMARK   41  A    between atoms: _114  and  _115
REMARK   42  A    between atoms: _115  and  _116
REMARK   43  A    between atoms: _119  and  _121
REMARK   44  A    between atoms: _121  and  _122
REMARK   45  A    between atoms: _121  and  _124
REMARK   46  A    between atoms: _124  and  _125
REMARK   47  A    between atoms: _125  and  _126
REMARK   48  A    between atoms: _128  and  _130
REMARK   49  A    between atoms: _130  and  _131
REMARK   50  A    between atoms: _130  and  _133
REMARK   51  A    between atoms: _136  and  _138
REMARK   52  A    between atoms: _138  and  _139
REMARK   53  A    between atoms: _138  and  _141
REMARK   54  A    between atoms: _141  and  _142
REMARK   55  A    between atoms: _147  and  _148
REMARK   56  A    between atoms: _150  and  _152
REMARK   57  A    between atoms: _152  and  _153
REMARK   58  A    between atoms: _155  and  _157
REMARK   59  A    between atoms: _157  and  _158
REMARK   60  A    between atoms: _157  and  _160
REMARK   61  A    between atoms: _160  and  _161
REMARK   62  A    between atoms: _164  and  _166
REMARK   63  A    between atoms: _166  and  _167
REMARK   64  A    between atoms: _166  and  _169
REMARK   65  A    between atoms: _169  and  _170
REMARK   66  A    between atoms: _176  and  _178
REMARK   67  A    between atoms: _178  and  _179
REMARK   68  A    between atoms: _178  and  _181
REMARK   69  A    between atoms: _181  and  _182
REMARK   70  A    between atoms: _185  and  _187
REMARK   71  A    between atoms: _187  and  _188
REMARK   72  A    between atoms: _190  and  _192
REMARK   73  A    between atoms: _192  and  _193
REMARK   74  A    between atoms: _192  and  _195
REMARK   75  A    between atoms: _195  and  _196
REMARK   76  A    between atoms: _199  and  _201
REMARK   77  A    between atoms: _201  and  _202
REMARK   78  A    between atoms: _201  and  _204
REMARK   79  A    between atoms: _207  and  _209
REMARK   80  A    between atoms: _209  and  _210
REMARK   81  A    between atoms: _209  and  _212
REMARK   82  A    between atoms: _215  and  _217
REMARK   83  A    between atoms: _217  and  _218
REMARK   84  A    between atoms: _221  and  _223
REMARK   85  A    between atoms: _234  and  _237
REMARK   86  A    between atoms: _237  and  _238
REMARK   87  A    between atoms: _238  and  _239
REMARK   88  A    between atoms: _244  and  _247
REMARK   89  A    between atoms: _247  and  _248
REMARK   90  A    between atoms: _253  and  _256
REMARK   91  A    between atoms: _256  and  _257
REMARK   92  A    between atoms: _262  and  _263
REMARK   93  A    between atoms: _271  and  _273
REMARK   94  A    between atoms: _273  and  _274
REMARK   95  A    between atoms: _277  and  _279
REMARK   96  A    between atoms: _279  and  _280
REMARK   97  A    between atoms: _279  and  _282
REMARK   98  A    between atoms: _282  and  _283
REMARK   99  A    between atoms: _286  and  _288
REMARK  100  A    between atoms: _288  and  _289
REMARK  101  A    between atoms: _288  and  _291
REMARK  102  A    between atoms: _291  and  _292
REMARK  103  A    between atoms: _295  and  _297
REMARK  104  A    between atoms: _297  and  _298
REMARK  105  A    between atoms: _300  and  _302
REMARK  106  A    between atoms: _302  and  _303
REMARK  107  A    between atoms: _302  and  _305
REMARK  108  A    between atoms: _305  and  _306
REMARK  109  A    between atoms: _309  and  _311
REMARK  110  A    between atoms: _311  and  _312
REMARK  111  A    between atoms: _311  and  _314
REMARK  112  A    between atoms: _314  and  _315
REMARK  113  A    between atoms: _318  and  _320
REMARK  114  A    between atoms: _320  and  _321
REMARK  115  A    between atoms: _320  and  _323
REMARK  116  A    between atoms: _323  and  _324
REMARK  117  A    between atoms: _329  and  _330
REMARK  118  A    between atoms: _332  and  _334
REMARK  119  A    between atoms: _334  and  _335
REMARK  120  A    between atoms: _334  and  _337
REMARK  121  A    between atoms: _337  and  _338
REMARK  122  A    between atoms: _338  and  _339
REMARK  123  A    between atoms: _344  and  _346
REMARK  124  A    between atoms: _346  and  _347
REMARK  125  A    between atoms: _349  and  _351
REMARK  126  A    between atoms: _351  and  _352
REMARK  127  A    between atoms: _351  and  _354
REMARK  128  A    between atoms: _354  and  _355
REMARK  129  A    between atoms: _360  and  _362
REMARK  130  A    between atoms: _362  and  _363
REMARK  131  A    between atoms: _362  and  _365
REMARK  132  A    between atoms: _365  and  _366
REMARK  133  A    between atoms: _366  and  _367
REMARK  134  A    between atoms: _367  and  _368
REMARK  135  A    between atoms: _368  and  ZN_631
REMARK  136  A    between atoms: _370  and  _372
REMARK  137  A    between atoms: _372  and  _373
REMARK  138  A    between atoms: _372  and  _375
REMARK  139  A    between atoms: _375  and  _376
REMARK  140  A    between atoms: _378  and  _380
REMARK  141  A    between atoms: _380  and  _381
REMARK  142  A    between atoms: _380  and  _383
REMARK  143  A    between atoms: _383  and  _384
REMARK  144  A    between atoms: _387  and  _389
REMARK  145  A    between atoms: _389  and  _390
REMARK  146  A    between atoms: _392  and  _394
REMARK  147  A    between atoms: _394  and  _395
REMARK  148  A    between atoms: _394  and  _397
REMARK  149  A    between atoms: _397  and  _398
REMARK  150  A    between atoms: _401  and  _403
REMARK  151  A    between atoms: _403  and  _404
REMARK  152  A    between atoms: _406  and  _408
REMARK  153  A    between atoms: _408  and  _409
REMARK  154  A    between atoms: _408  and  _411
REMARK  155  A    between atoms: _411  and  _412
REMARK  156  A    between atoms: _412  and  _413
REMARK  157  A    between atoms: _416  and  _418
REMARK  158  A    between atoms: _418  and  _419
REMARK  159  A    between atoms: _418  and  _421
REMARK  160  A    between atoms: _424  and  _426
REMARK  161  A    between atoms: _426  and  _427
REMARK  162  A    between atoms: _426  and  _429
REMARK  163  A    between atoms: _429  and  _430
REMARK  164  A    between atoms: _435  and  _436
REMARK  165  A    between atoms: _438  and  _440
REMARK  166  A    between atoms: _440  and  _441
REMARK  167  A    between atoms: _440  and  _443
REMARK  168  A    between atoms: _443  and  _444
REMARK  169  A    between atoms: _447  and  _449
REMARK  170  A    between atoms: _449  and  _450
REMARK  171  A    between atoms: _449  and  _452
REMARK  172  A    between atoms: _452  and  _453
REMARK  173  A    between atoms: _453  and  _454
REMARK  174  A    between atoms: _454  and  _455
REMARK  175  A    between atoms: _464  and  _466
REMARK  176  A    between atoms: _466  and  _467
REMARK  177  A    between atoms: _466  and  _469
REMARK  178  A    between atoms: _469  and  _470
REMARK  179  A    between atoms: _473  and  _475
REMARK  180  A    between atoms: _475  and  _476
REMARK  181  A    between atoms: _475  and  _478
REMARK  182  A    between atoms: _478  and  _479
REMARK  183  A    between atoms: _484  and  _486
REMARK  184  A    between atoms: _486  and  _487
REMARK  185  A    between atoms: _486  and  _489
REMARK  186  A    between atoms: _492  and  _494
REMARK  187  A    between atoms: _494  and  _495
REMARK  188  A    between atoms: _494  and  _497
REMARK  189  A    between atoms: _497  and  _498
REMARK  190  A    between atoms: _503  and  _505
REMARK  191  A    between atoms: _505  and  _506
REMARK  192  A    between atoms: _505  and  _508
REMARK  193  A    between atoms: _508  and  _509
REMARK  194  A    between atoms: _512  and  _514
REMARK  195  A    between atoms: _514  and  _515
REMARK  196  A    between atoms: _514  and  _517
REMARK  197  A    between atoms: _517  and  _518
REMARK  198  A    between atoms: _520  and  _522
REMARK  199  A    between atoms: _522  and  _523
REMARK  200  A    between atoms: _522  and  _525
REMARK  201  A    between atoms: _525  and  _526
REMARK  202  A    between atoms: _526  and  _527
REMARK  203  A    between atoms: _527  and  _528
REMARK  204  A    between atoms: _537  and  _539
REMARK  205  A    between atoms: _539  and  _540
REMARK  206  A    between atoms: _539  and  _542
REMARK  207  A    between atoms: _542  and  _543
REMARK  208  A    between atoms: _546  and  _548
REMARK  209  A    between atoms: _548  and  _549
REMARK  210  A    between atoms: _548  and  _551
REMARK  211  A    between atoms: _551  and  _552
REMARK  212  A    between atoms: _555  and  _557
REMARK  213  A    between atoms: _557  and  _558
REMARK  214  A    between atoms: _557  and  _560
REMARK  215  A    between atoms: _560  and  _561
REMARK  216  A    between atoms: _564  and  _566
REMARK  217  A    between atoms: _566  and  _567
REMARK  218  A    between atoms: _566  and  _569
REMARK  219  A    between atoms: _569  and  _570
REMARK  220  A    between atoms: _575  and  _576
REMARK  221  A    between atoms: _578  and  _580
REMARK  222  A    between atoms: _580  and  _581
REMARK  223  A    between atoms: _580  and  _583
REMARK  224  A    between atoms: _583  and  _584
REMARK  225  A    between atoms: _586  and  _588
REMARK  226  A    between atoms: _588  and  _589
REMARK  227  A    between atoms: _588  and  _591
REMARK  228  A    between atoms: _591  and  _592
REMARK  229  A    between atoms: _597  and  _598
REMARK  230  A    between atoms: _600  and  _602
REMARK  231  A    between atoms: _602  and  _603
REMARK  232  A    between atoms: _602  and  _605
REMARK  233  A    between atoms: _605  and  _606
REMARK  234  A    between atoms: _612  and  _614
REMARK  235  A    between atoms: _614  and  _615
REMARK  236  A    between atoms: _614  and  _617
REMARK  237  A    between atoms: _620  and  _622
REMARK  238  A    between atoms: _622  and  _623
REMARK  239  A    between atoms: _622  and  _625
REMARK  240  A    between atoms: _625  and  _626
REMARK                            x       y       z     vdW  Elec       q    Type
REMARK                         _______ _______ _______ _____ _____    ______ ____
ROOT
ATOM      1  O   HOH     1      46.265  23.528 -14.585  0.00  0.00    +0.000 OA
ENDROOT
TORSDOF 0
REMARK  Name = ../refined-set-2016/4tmn/4tmn_pocket.pdb
REMARK  240 active torsions:
REMARK  status: ('A' for Active; 'I' for Inactive)
REMARK    1  A    between atoms: _1  and  _3
REMARK    2  A    between atoms: _3  and  _4
REMARK    3  A    between atoms: _3  and  _6
REMARK    4  A    between atoms: _6  and  _7
REMARK    5  A    between atoms: _12  and  _13
REMARK    6  A    between atoms: _15  and  _17
REMARK    7  A    between atoms: _17  and  _18
REMARK    8  A    between atoms: _17  and  _20
REMARK    9  A    between atoms: _20  and  _21
REMARK   10  A    between atoms: _26  and  _27
REMARK   11  A    between atoms: _29  and  _31
REMARK   12  A    between atoms: _31  and  _32
REMARK   13  A    between atoms: _31  and  _34
REMARK   14  A    between atoms: _34  and  _35
REMARK   15  A    between atoms: _40  and  _42
REMARK   16  A    between atoms: _42  and  _43
REMARK   17  A    between atoms: _42  and  _45
REMARK   18  A    between atoms: _45  and  _46
REMARK   19  A    between atoms: _51  and  _53
REMARK   20  A    between atoms: _53  and  _54
REMARK   21  A    between atoms: _57  and  _59
REMARK   22  A    between atoms: _59  and  _60
REMARK   23  A    between atoms: _59  and  _62
REMARK   24  A    between atoms: _62  and  _63
REMARK   25  A    between atoms: _69  and  _71
REMARK   26  A    between atoms: _71  and  _72
REMARK   27  A    between atoms: _71  and  _74
REMARK   28  A    between atoms: _74  and  _75
REMARK   29  A    between atoms: _85  and  _87
REMARK   30  A    between atoms: _87  and  _88
REMARK   31  A    between atoms: _87  and  _90
REMARK   32  A    between atoms: _90  and  _91
REMARK   33  A    between atoms: _96  and  _98
REMARK   34  A    between atoms: _98  and  _99
REMARK   35  A    between atoms: _103  and  _104
REMARK   36  A    between atoms: _103  and  _106
REMARK   37  A    between atoms: _106  and  _107
REMARK   38  A    between atoms: _109  and  _111
REMARK   39  A    between atoms: _111  and  _112
REMARK   40  A    between atoms: _111  and  _114
REMARK   41  A    between atoms: _114  and  _115
REMARK   42  A    between atoms: _115  and  _116
REMARK   43  A    between atoms: _119  and  _121
REMARK   44  A    between atoms: _121  and  _122
REMARK   45  A    between atoms: _121  and  _124
REMARK   46  A    between atoms: _124  and  _125
REMARK   47  A    between atoms: _125  and  _126
REMARK   48  A    between atoms: _128  and  _130
REMARK   49  A    between atoms: _130  and  _131
REMARK   50  A    between atoms: _130  and  _133
REMARK   51  A    between atoms: _136  and  _138
REMARK   52  A    between atoms: _138  and  _139
REMARK   53  A    between atoms: _138  and  _141
REMARK   54  A    between atoms: _141  and  _142
REMARK   55  A    between atoms: _147  and  _148
REMARK   56  A    between atoms: _150  and  _152
REMARK   57  A    between atoms: _152  and  _153
REMARK   58  A    between atoms: _155  and  _157
REMARK   59  A    between atoms: _157  and  _158
REMARK   60  A    between atoms: _157  and  _160
REMARK   61  A    between atoms: _160  and  _161
REMARK   62  A    between atoms: _164  and  _166
REMARK   63  A    between atoms: _166  and  _167
REMARK   64  A    between atoms: _166  and  _169
REMARK   65  A    between atoms: _169  and  _170
REMARK   66  A    between atoms: _176  and  _178
REMARK   67  A    between atoms: _178  and  _179
REMARK   68  A    between atoms: _178  and  _181
REMARK   69  A    between atoms: _181  and  _182
REMARK   70  A    between atoms: _185  and  _187
REMARK   71  A    between atoms: _187  and  _188
REMARK   72  A    between atoms: _190  and  _192
REMARK   73  A    between atoms: _192  and  _193
REMARK   74  A    between atoms: _192  and  _195
REMARK   75  A    between atoms: _195  and  _196
REMARK   76  A    between atoms: _199  and  _201
REMARK   77  A    between atoms: _201  and  _202
REMARK   78  A    between atoms: _201  and  _204
REMARK   79  A    between atoms: _207  and  _209
REMARK   80  A    between atoms: _209  and  _210
REMARK   81  A    between atoms: _209  and  _212
REMARK   82  A    between atoms: _215  and  _217
REMARK   83  A    between atoms: _217  and  _218
REMARK   84  A    between atoms: _221  and  _223
REMARK   85  A    between atoms: _234  and  _237
REMARK   86  A    between atoms: _237  and  _238
REMARK   87  A    between atoms: _238  and  _239
REMARK   88  A    between atoms: _244  and  _247
REMARK   89  A    between atoms: _247  and  _248
REMARK   90  A    between atoms: _253  and  _256
REMARK   91  A    between atoms: _256  and  _257
REMARK   92  A    between atoms: _262  and  _263
REMARK   93  A    between atoms: _271  and  _273
REMARK   94  A    between atoms: _273  and  _274
REMARK   95  A    between atoms: _277  and  _279
REMARK   96  A    between atoms: _279  and  _280
REMARK   97  A    between atoms: _279  and  _282
REMARK   98  A    between atoms: _282  and  _283
REMARK   99  A    between atoms: _286  and  _288
REMARK  100  A    between atoms: _288  and  _289
REMARK  101  A    between atoms: _288  and  _291
REMARK  102  A    between atoms: _291  and  _292
REMARK  103  A    between atoms: _295  and  _297
REMARK  104  A    between atoms: _297  and  _298
REMARK  105  A    between atoms: _300  and  _302
REMARK  106  A    between atoms: _302  and  _303
REMARK  107  A    between atoms: _302  and  _305
REMARK  108  A    between atoms: _305  and  _306
REMARK  109  A    between atoms: _309  and  _311
REMARK  110  A    between atoms: _311  and  _312
REMARK  111  A    between atoms: _311  and  _314
REMARK  112  A    between atoms: _314  and  _315
REMARK  113  A    between atoms: _318  and  _320
REMARK  114  A    between atoms: _320  and  _321
REMARK  115  A    between atoms: _320  and  _323
REMARK  116  A    between atoms: _323  and  _324
REMARK  117  A    between atoms: _329  and  _330
REMARK  118  A    between atoms: _332  and  _334
REMARK  119  A    between atoms: _334  and  _335
REMARK  120  A    between atoms: _334  and  _337
REMARK  121  A    between atoms: _337  and  _338
REMARK  122  A    between atoms: _338  and  _339
REMARK  123  A    between atoms: _344  and  _346
REMARK  124  A    between atoms: _346  and  _347
REMARK  125  A    between atoms: _349  and  _351
REMARK  126  A    between atoms: _351  and  _352
REMARK  127  A    between atoms: _351  and  _354
REMARK  128  A    between atoms: _354  and  _355
REMARK  129  A    between atoms: _360  and  _362
REMARK  130  A    between atoms: _362  and  _363
REMARK  131  A    between atoms: _362  and  _365
REMARK  132  A    between atoms: _365  and  _366
REMARK  133  A    between atoms: _366  and  _367
REMARK  134  A    between atoms: _367  and  _368
REMARK  135  A    between atoms: _368  and  ZN_631
REMARK  136  A    between atoms: _370  and  _372
REMARK  137  A    between atoms: _372  and  _373
REMARK  138  A    between atoms: _372  and  _375
REMARK  139  A    between atoms: _375  and  _376
REMARK  140  A    between atoms: _378  and  _380
REMARK  141  A    between atoms: _380  and  _381
REMARK  142  A    between atoms: _380  and  _383
REMARK  143  A    between atoms: _383  and  _384
REMARK  144  A    between atoms: _387  and  _389
REMARK  145  A    between atoms: _389  and  _390
REMARK  146  A    between atoms: _392  and  _394
REMARK  147  A    between atoms: _394  and  _395
REMARK  148  A    between atoms: _394  and  _397
REMARK  149  A    between atoms: _397  and  _398
REMARK  150  A    between atoms: _401  and  _403
REMARK  151  A    between atoms: _403  and  _404
REMARK  152  A    between atoms: _406  and  _408
REMARK  153  A    between atoms: _408  and  _409
REMARK  154  A    between atoms: _408  and  _411
REMARK  155  A    between atoms: _411  and  _412
REMARK  156  A    between atoms: _412  and  _413
REMARK  157  A    between atoms: _416  and  _418
REMARK  158  A    between atoms: _418  and  _419
REMARK  159  A    between atoms: _418  and  _421
REMARK  160  A    between atoms: _424  and  _426
REMARK  161  A    between atoms: _426  and  _427
REMARK  162  A    between atoms: _426  and  _429
REMARK  163  A    between atoms: _429  and  _430
REMARK  164  A    between atoms: _435  and  _436
REMARK  165  A    between atoms: _438  and  _440
REMARK  166  A    between atoms: _440  and  _441
REMARK  167  A    between atoms: _440  and  _443
REMARK  168  A    between atoms: _443  and  _444
REMARK  169  A    between atoms: _447  and  _449
REMARK  170  A    between atoms: _449  and  _450
REMARK  171  A    between atoms: _449  and  _452
REMARK  172  A    between atoms: _452  and  _453
REMARK  173  A    between atoms: _453  and  _454
REMARK  174  A    between atoms: _454  and  _455
REMARK  175  A    between atoms: _464  and  _466
REMARK  176  A    between atoms: _466  and  _467
REMARK  177  A    between atoms: _466  and  _469
REMARK  178  A    between atoms: _469  and  _470
REMARK  179  A    between atoms: _473  and  _475
REMARK  180  A    between atoms: _475  and  _476
REMARK  181  A    between atoms: _475  and  _478
REMARK  182  A    between atoms: _478  and  _479
REMARK  183  A    between atoms: _484  and  _486
REMARK  184  A    between atoms: _486  and  _487
REMARK  185  A    between atoms: _486  and  _489
REMARK  186  A    between atoms: _492  and  _494
REMARK  187  A    between atoms: _494  and  _495
REMARK  188  A    between atoms: _494  and  _497
REMARK  189  A    between atoms: _497  and  _498
REMARK  190  A    between atoms: _503  and  _505
REMARK  191  A    between atoms: _505  and  _506
REMARK  192  A    between atoms: _505  and  _508
REMARK  193  A    between atoms: _508  and  _509
REMARK  194  A    between atoms: _512  and  _514
REMARK  195  A    between atoms: _514  and  _515
REMARK  196  A    between atoms: _514  and  _517
REMARK  197  A    between atoms: _517  and  _518
REMARK  198  A    between atoms: _520  and  _522
REMARK  199  A    between atoms: _522  and  _523
REMARK  200  A    between atoms: _522  and  _525
REMARK  201  A    between atoms: _525  and  _526
REMARK  202  A    between atoms: _526  and  _527
REMARK  203  A    between atoms: _527  and  _528
REMARK  204  A    between atoms: _537  and  _539
REMARK  205  A    between atoms: _539  and  _540
REMARK  206  A    between atoms: _539  and  _542
REMARK  207  A    between atoms: _542  and  _543
REMARK  208  A    between atoms: _546  and  _548
REMARK  209  A    between atoms: _548  and  _549
REMARK  210  A    between atoms: _548  and  _551
REMARK  211  A    between atoms: _551  and  _552
REMARK  212  A    between atoms: _555  and  _557
REMARK  213  A    between atoms: _557  and  _558
REMARK  214  A    between atoms: _557  and  _560
REMARK  215  A    between atoms: _560  and  _561
REMARK  216  A    between atoms: _564  and  _566
REMARK  217  A    between atoms: _566  and  _567
REMARK  218  A    between atoms: _566  and  _569
REMARK  219  A    between atoms: _569  and  _570
REMARK  220  A    between atoms: _575  and  _576
REMARK  221  A    between atoms: _578  and  _580
REMARK  222  A    between atoms: _580  and  _581
REMARK  223  A    between atoms: _580  and  _583
REMARK  224  A    between atoms: _583  and  _584
REMARK  225  A    between atoms: _586  and  _588
REMARK  226  A    between atoms: _588  and  _589
REMARK  227  A    between atoms: _588  and  _591
REMARK  228  A    between atoms: _591  and  _592
REMARK  229  A    between atoms: _597  and  _598
REMARK  230  A    between atoms: _600  and  _602
REMARK  231  A    between atoms: _602  and  _603
REMARK  232  A    between atoms: _602  and  _605
REMARK  233  A    between atoms: _605  and  _606
REMARK  234  A    between atoms: _612  and  _614
REMARK  235  A    between atoms: _614  and  _615
REMARK  236  A    between atoms: _614  and  _617
REMARK  237  A    between atoms: _620  and  _622
REMARK  238  A    between atoms: _622  and  _623
REMARK  239  A    between atoms: _622  and  _625
REMARK  240  A    between atoms: _625  and  _626
REMARK                            x       y       z     vdW  Elec       q    Type
REMARK                         _______ _______ _______ _____ _____    ______ ____
ROOT
ATOM      1  O   HOH     1      44.894  19.551 -11.867  0.00  0.00    +0.000 OA
ENDROOT
TORSDOF 0
REMARK  Name = ../refined-set-2016/4tmn/4tmn_pocket.pdb
REMARK  240 active torsions:
REMARK  status: ('A' for Active; 'I' for Inactive)
REMARK    1  A    between atoms: _1  and  _3
REMARK    2  A    between atoms: _3  and  _4
REMARK    3  A    between atoms: _3  and  _6
REMARK    4  A    between atoms: _6  and  _7
REMARK    5  A    between atoms: _12  and  _13
REMARK    6  A    between atoms: _15  and  _17
REMARK    7  A    between atoms: _17  and  _18
REMARK    8  A    between atoms: _17  and  _20
REMARK    9  A    between atoms: _20  and  _21
REMARK   10  A    between atoms: _26  and  _27
REMARK   11  A    between atoms: _29  and  _31
REMARK   12  A    between atoms: _31  and  _32
REMARK   13  A    between atoms: _31  and  _34
REMARK   14  A    between atoms: _34  and  _35
REMARK   15  A    between atoms: _40  and  _42
REMARK   16  A    between atoms: _42  and  _43
REMARK   17  A    between atoms: _42  and  _45
REMARK   18  A    between atoms: _45  and  _46
REMARK   19  A    between atoms: _51  and  _53
REMARK   20  A    between atoms: _53  and  _54
REMARK   21  A    between atoms: _57  and  _59
REMARK   22  A    between atoms: _59  and  _60
REMARK   23  A    between atoms: _59  and  _62
REMARK   24  A    between atoms: _62  and  _63
REMARK   25  A    between atoms: _69  and  _71
REMARK   26  A    between atoms: _71  and  _72
REMARK   27  A    between atoms: _71  and  _74
REMARK   28  A    between atoms: _74  and  _75
REMARK   29  A    between atoms: _85  and  _87
REMARK   30  A    between atoms: _87  and  _88
REMARK   31  A    between atoms: _87  and  _90
REMARK   32  A    between atoms: _90  and  _91
REMARK   33  A    between atoms: _96  and  _98
REMARK   34  A    between atoms: _98  and  _99
REMARK   35  A    between atoms: _103  and  _104
REMARK   36  A    between atoms: _103  and  _106
REMARK   37  A    between atoms: _106  and  _107
REMARK   38  A    between atoms: _109  and  _111
REMARK   39  A    between atoms: _111  and  _112
REMARK   40  A    between atoms: _111  and  _114
REMARK   41  A    between atoms: _114  and  _115
REMARK   42  A    between atoms: _115  and  _116
REMARK   43  A    between atoms: _119  and  _121
REMARK   44  A    between atoms: _121  and  _122
REMARK   45  A    between atoms: _121  and  _124
REMARK   46  A    between atoms: _124  and  _125
REMARK   47  A    between atoms: _125  and  _126
REMARK   48  A    between atoms: _128  and  _130
REMARK   49  A    between atoms: _130  and  _131
REMARK   50  A    between atoms: _130  and  _133
REMARK   51  A    between atoms: _136  and  _138
REMARK   52  A    between atoms: _138  and  _139
REMARK   53  A    between atoms: _138  and  _141
REMARK   54  A    between atoms: _141  and  _142
REMARK   55  A    between atoms: _147  and  _148
REMARK   56  A    between atoms: _150  and  _152
REMARK   57  A    between atoms: _152  and  _153
REMARK   58  A    between atoms: _155  and  _157
REMARK   59  A    between atoms: _157  and  _158
REMARK   60  A    between atoms: _157  and  _160
REMARK   61  A    between atoms: _160  and  _161
REMARK   62  A    between atoms: _164  and  _166
REMARK   63  A    between atoms: _166  and  _167
REMARK   64  A    between atoms: _166  and  _169
REMARK   65  A    between atoms: _169  and  _170
REMARK   66  A    between atoms: _176  and  _178
REMARK   67  A    between atoms: _178  and  _179
REMARK   68  A    between atoms: _178  and  _181
REMARK   69  A    between atoms: _181  and  _182
REMARK   70  A    between atoms: _185  and  _187
REMARK   71  A    between atoms: _187  and  _188
REMARK   72  A    between atoms: _190  and  _192
REMARK   73  A    between atoms: _192  and  _193
REMARK   74  A    between atoms: _192  and  _195
REMARK   75  A    between atoms: _195  and  _196
REMARK   76  A    between atoms: _199  and  _201
REMARK   77  A    between atoms: _201  and  _202
REMARK   78  A    between atoms: _201  and  _204
REMARK   79  A    between atoms: _207  and  _209
REMARK   80  A    between atoms: _209  and  _210
REMARK   81  A    between atoms: _209  and  _212
REMARK   82  A    between atoms: _215  and  _217
REMARK   83  A    between atoms: _217  and  _218
REMARK   84  A    between atoms: _221  and  _223
REMARK   85  A    between atoms: _234  and  _237
REMARK   86  A    between atoms: _237  and  _238
REMARK   87  A    between atoms: _238  and  _239
REMARK   88  A    between atoms: _244  and  _247
REMARK   89  A    between atoms: _247  and  _248
REMARK   90  A    between atoms: _253  and  _256
REMARK   91  A    between atoms: _256  and  _257
REMARK   92  A    between atoms: _262  and  _263
REMARK   93  A    between atoms: _271  and  _273
REMARK   94  A    between atoms: _273  and  _274
REMARK   95  A    between atoms: _277  and  _279
REMARK   96  A    between atoms: _279  and  _280
REMARK   97  A    between atoms: _279  and  _282
REMARK   98  A    between atoms: _282  and  _283
REMARK   99  A    between atoms: _286  and  _288
REMARK  100  A    between atoms: _288  and  _289
REMARK  101  A    between atoms: _288  and  _291
REMARK  102  A    between atoms: _291  and  _292
REMARK  103  A    between atoms: _295  and  _297
REMARK  104  A    between atoms: _297  and  _298
REMARK  105  A    between atoms: _300  and  _302
REMARK  106  A    between atoms: _302  and  _303
REMARK  107  A    between atoms: _302  and  _305
REMARK  108  A    between atoms: _305  and  _306
REMARK  109  A    between atoms: _309  and  _311
REMARK  110  A    between atoms: _311  and  _312
REMARK  111  A    between atoms: _311  and  _314
REMARK  112  A    between atoms: _314  and  _315
REMARK  113  A    between atoms: _318  and  _320
REMARK  114  A    between atoms: _320  and  _321
REMARK  115  A    between atoms: _320  and  _323
REMARK  116  A    between atoms: _323  and  _324
REMARK  117  A    between atoms: _329  and  _330
REMARK  118  A    between atoms: _332  and  _334
REMARK  119  A    between atoms: _334  and  _335
REMARK  120  A    between atoms: _334  and  _337
REMARK  121  A    between atoms: _337  and  _338
REMARK  122  A    between atoms: _338  and  _339
REMARK  123  A    between atoms: _344  and  _346
REMARK  124  A    between atoms: _346  and  _347
REMARK  125  A    between atoms: _349  and  _351
REMARK  126  A    between atoms: _351  and  _352
REMARK  127  A    between atoms: _351  and  _354
REMARK  128  A    between atoms: _354  and  _355
REMARK  129  A    between atoms: _360  and  _362
REMARK  130  A    between atoms: _362  and  _363
REMARK  131  A    between atoms: _362  and  _365
REMARK  132  A    between atoms: _365  and  _366
REMARK  133  A    between atoms: _366  and  _367
REMARK  134  A    between atoms: _367  and  _368
REMARK  135  A    between atoms: _368  and  ZN_631
REMARK  136  A    between atoms: _370  and  _372
REMARK  137  A    between atoms: _372  and  _373
REMARK  138  A    between atoms: _372  and  _375
REMARK  139  A    between atoms: _375  and  _376
REMARK  140  A    between atoms: _378  and  _380
REMARK  141  A    between atoms: _380  and  _381
REMARK  142  A    between atoms: _380  and  _383
REMARK  143  A    between atoms: _383  and  _384
REMARK  144  A    between atoms: _387  and  _389
REMARK  145  A    between atoms: _389  and  _390
REMARK  146  A    between atoms: _392  and  _394
REMARK  147  A    between atoms: _394  and  _395
REMARK  148  A    between atoms: _394  and  _397
REMARK  149  A    between atoms: _397  and  _398
REMARK  150  A    between atoms: _401  and  _403
REMARK  151  A    between atoms: _403  and  _404
REMARK  152  A    between atoms: _406  and  _408
REMARK  153  A    between atoms: _408  and  _409
REMARK  154  A    between atoms: _408  and  _411
REMARK  155  A    between atoms: _411  and  _412
REMARK  156  A    between atoms: _412  and  _413
REMARK  157  A    between atoms: _416  and  _418
REMARK  158  A    between atoms: _418  and  _419
REMARK  159  A    between atoms: _418  and  _421
REMARK  160  A    between atoms: _424  and  _426
REMARK  161  A    between atoms: _426  and  _427
REMARK  162  A    between atoms: _426  and  _429
REMARK  163  A    between atoms: _429  and  _430
REMARK  164  A    between atoms: _435  and  _436
REMARK  165  A    between atoms: _438  and  _440
REMARK  166  A    between atoms: _440  and  _441
REMARK  167  A    between atoms: _440  and  _443
REMARK  168  A    between atoms: _443  and  _444
REMARK  169  A    between atoms: _447  and  _449
REMARK  170  A    between atoms: _449  and  _450
REMARK  171  A    between atoms: _449  and  _452
REMARK  172  A    between atoms: _452  and  _453
REMARK  173  A    between atoms: _453  and  _454
REMARK  174  A    between atoms: _454  and  _455
REMARK  175  A    between atoms: _464  and  _466
REMARK  176  A    between atoms: _466  and  _467
REMARK  177  A    between atoms: _466  and  _469
REMARK  178  A    between atoms: _469  and  _470
REMARK  179  A    between atoms: _473  and  _475
REMARK  180  A    between atoms: _475  and  _476
REMARK  181  A    between atoms: _475  and  _478
REMARK  182  A    between atoms: _478  and  _479
REMARK  183  A    between atoms: _484  and  _486
REMARK  184  A    between atoms: _486  and  _487
REMARK  185  A    between atoms: _486  and  _489
REMARK  186  A    between atoms: _492  and  _494
REMARK  187  A    between atoms: _494  and  _495
REMARK  188  A    between atoms: _494  and  _497
REMARK  189  A    between atoms: _497  and  _498
REMARK  190  A    between atoms: _503  and  _505
REMARK  191  A    between atoms: _505  and  _506
REMARK  192  A    between atoms: _505  and  _508
REMARK  193  A    between atoms: _508  and  _509
REMARK  194  A    between atoms: _512  and  _514
REMARK  195  A    between atoms: _514  and  _515
REMARK  196  A    between atoms: _514  and  _517
REMARK  197  A    between atoms: _517  and  _518
REMARK  198  A    between atoms: _520  and  _522
REMARK  199  A    between atoms: _522  and  _523
REMARK  200  A    between atoms: _522  and  _525
REMARK  201  A    between atoms: _525  and  _526
REMARK  202  A    between atoms: _526  and  _527
REMARK  203  A    between atoms: _527  and  _528
REMARK  204  A    between atoms: _537  and  _539
REMARK  205  A    between atoms: _539  and  _540
REMARK  206  A    between atoms: _539  and  _542
REMARK  207  A    between atoms: _542  and  _543
REMARK  208  A    between atoms: _546  and  _548
REMARK  209  A    between atoms: _548  and  _549
REMARK  210  A    between atoms: _548  and  _551
REMARK  211  A    between atoms: _551  and  _552
REMARK  212  A    between atoms: _555  and  _557
REMARK  213  A    between atoms: _557  and  _558
REMARK  214  A    between atoms: _557  and  _560
REMARK  215  A    between atoms: _560  and  _561
REMARK  216  A    between atoms: _564  and  _566
REMARK  217  A    between atoms: _566  and  _567
REMARK  218  A    between atoms: _566  and  _569
REMARK  219  A    between atoms: _569  and  _570
REMARK  220  A    between atoms: _575  and  _576
REMARK  221  A    between atoms: _578  and  _580
REMARK  222  A    between atoms: _580  and  _581
REMARK  223  A    between atoms: _580  and  _583
REMARK  224  A    between atoms: _583  and  _584
REMARK  225  A    between atoms: _586  and  _588
REMARK  226  A    between atoms: _588  and  _589
REMARK  227  A    between atoms: _588  and  _591
REMARK  228  A    between atoms: _591  and  _592
REMARK  229  A    between atoms: _597  and  _598
REMARK  230  A    between atoms: _600  and  _602
REMARK  231  A    between atoms: _602  and  _603
REMARK  232  A    between atoms: _602  and  _605
REMARK  233  A    between atoms: _605  and  _606
REMARK  234  A    between atoms: _612  and  _614
REMARK  235  A    between atoms: _614  and  _615
REMARK  236  A    between atoms: _614  and  _617
REMARK  237  A    between atoms: _620  and  _622
REMARK  238  A    between atoms: _622  and  _623
REMARK  239  A    between atoms: _622  and  _625
REMARK  240  A    between atoms: _625  and  _626
REMARK                            x       y       z     vdW  Elec       q    Type
REMARK                         _______ _______ _______ _____ _____    ______ ____
ROOT
ATOM      1  O   HOH     1      55.816   7.020  -7.828  0.00  0.00    +0.000 OA
ENDROOT
TORSDOF 0
REMARK  Name = ../refined-set-2016/4tmn/4tmn_pocket.pdb
REMARK  240 active torsions:
REMARK  status: ('A' for Active; 'I' for Inactive)
REMARK    1  A    between atoms: _1  and  _3
REMARK    2  A    between atoms: _3  and  _4
REMARK    3  A    between atoms: _3  and  _6
REMARK    4  A    between atoms: _6  and  _7
REMARK    5  A    between atoms: _12  and  _13
REMARK    6  A    between atoms: _15  and  _17
REMARK    7  A    between atoms: _17  and  _18
REMARK    8  A    between atoms: _17  and  _20
REMARK    9  A    between atoms: _20  and  _21
REMARK   10  A    between atoms: _26  and  _27
REMARK   11  A    between atoms: _29  and  _31
REMARK   12  A    between atoms: _31  and  _32
REMARK   13  A    between atoms: _31  and  _34
REMARK   14  A    between atoms: _34  and  _35
REMARK   15  A    between atoms: _40  and  _42
REMARK   16  A    between atoms: _42  and  _43
REMARK   17  A    between atoms: _42  and  _45
REMARK   18  A    between atoms: _45  and  _46
REMARK   19  A    between atoms: _51  and  _53
REMARK   20  A    between atoms: _53  and  _54
REMARK   21  A    between atoms: _57  and  _59
REMARK   22  A    between atoms: _59  and  _60
REMARK   23  A    between atoms: _59  and  _62
REMARK   24  A    between atoms: _62  and  _63
REMARK   25  A    between atoms: _69  and  _71
REMARK   26  A    between atoms: _71  and  _72
REMARK   27  A    between atoms: _71  and  _74
REMARK   28  A    between atoms: _74  and  _75
REMARK   29  A    between atoms: _85  and  _87
REMARK   30  A    between atoms: _87  and  _88
REMARK   31  A    between atoms: _87  and  _90
REMARK   32  A    between atoms: _90  and  _91
REMARK   33  A    between atoms: _96  and  _98
REMARK   34  A    between atoms: _98  and  _99
REMARK   35  A    between atoms: _103  and  _104
REMARK   36  A    between atoms: _103  and  _106
REMARK   37  A    between atoms: _106  and  _107
REMARK   38  A    between atoms: _109  and  _111
REMARK   39  A    between atoms: _111  and  _112
REMARK   40  A    between atoms: _111  and  _114
REMARK   41  A    between atoms: _114  and  _115
REMARK   42  A    between atoms: _115  and  _116
REMARK   43  A    between atoms: _119  and  _121
REMARK   44  A    between atoms: _121  and  _122
REMARK   45  A    between atoms: _121  and  _124
REMARK   46  A    between atoms: _124  and  _125
REMARK   47  A    between atoms: _125  and  _126
REMARK   48  A    between atoms: _128  and  _130
REMARK   49  A    between atoms: _130  and  _131
REMARK   50  A    between atoms: _130  and  _133
REMARK   51  A    between atoms: _136  and  _138
REMARK   52  A    between atoms: _138  and  _139
REMARK   53  A    between atoms: _138  and  _141
REMARK   54  A    between atoms: _141  and  _142
REMARK   55  A    between atoms: _147  and  _148
REMARK   56  A    between atoms: _150  and  _152
REMARK   57  A    between atoms: _152  and  _153
REMARK   58  A    between atoms: _155  and  _157
REMARK   59  A    between atoms: _157  and  _158
REMARK   60  A    between atoms: _157  and  _160
REMARK   61  A    between atoms: _160  and  _161
REMARK   62  A    between atoms: _164  and  _166
REMARK   63  A    between atoms: _166  and  _167
REMARK   64  A    between atoms: _166  and  _169
REMARK   65  A    between atoms: _169  and  _170
REMARK   66  A    between atoms: _176  and  _178
REMARK   67  A    between atoms: _178  and  _179
REMARK   68  A    between atoms: _178  and  _181
REMARK   69  A    between atoms: _181  and  _182
REMARK   70  A    between atoms: _185  and  _187
REMARK   71  A    between atoms: _187  and  _188
REMARK   72  A    between atoms: _190  and  _192
REMARK   73  A    between atoms: _192  and  _193
REMARK   74  A    between atoms: _192  and  _195
REMARK   75  A    between atoms: _195  and  _196
REMARK   76  A    between atoms: _199  and  _201
REMARK   77  A    between atoms: _201  and  _202
REMARK   78  A    between atoms: _201  and  _204
REMARK   79  A    between atoms: _207  and  _209
REMARK   80  A    between atoms: _209  and  _210
REMARK   81  A    between atoms: _209  and  _212
REMARK   82  A    between atoms: _215  and  _217
REMARK   83  A    between atoms: _217  and  _218
REMARK   84  A    between atoms: _221  and  _223
REMARK   85  A    between atoms: _234  and  _237
REMARK   86  A    between atoms: _237  and  _238
REMARK   87  A    between atoms: _238  and  _239
REMARK   88  A    between atoms: _244  and  _247
REMARK   89  A    between atoms: _247  and  _248
REMARK   90  A    between atoms: _253  and  _256
REMARK   91  A    between atoms: _256  and  _257
REMARK   92  A    between atoms: _262  and  _263
REMARK   93  A    between atoms: _271  and  _273
REMARK   94  A    between atoms: _273  and  _274
REMARK   95  A    between atoms: _277  and  _279
REMARK   96  A    between atoms: _279  and  _280
REMARK   97  A    between atoms: _279  and  _282
REMARK   98  A    between atoms: _282  and  _283
REMARK   99  A    between atoms: _286  and  _288
REMARK  100  A    between atoms: _288  and  _289
REMARK  101  A    between atoms: _288  and  _291
REMARK  102  A    between atoms: _291  and  _292
REMARK  103  A    between atoms: _295  and  _297
REMARK  104  A    between atoms: _297  and  _298
REMARK  105  A    between atoms: _300  and  _302
REMARK  106  A    between atoms: _302  and  _303
REMARK  107  A    between atoms: _302  and  _305
REMARK  108  A    between atoms: _305  and  _306
REMARK  109  A    between atoms: _309  and  _311
REMARK  110  A    between atoms: _311  and  _312
REMARK  111  A    between atoms: _311  and  _314
REMARK  112  A    between atoms: _314  and  _315
REMARK  113  A    between atoms: _318  and  _320
REMARK  114  A    between atoms: _320  and  _321
REMARK  115  A    between atoms: _320  and  _323
REMARK  116  A    between atoms: _323  and  _324
REMARK  117  A    between atoms: _329  and  _330
REMARK  118  A    between atoms: _332  and  _334
REMARK  119  A    between atoms: _334  and  _335
REMARK  120  A    between atoms: _334  and  _337
REMARK  121  A    between atoms: _337  and  _338
REMARK  122  A    between atoms: _338  and  _339
REMARK  123  A    between atoms: _344  and  _346
REMARK  124  A    between atoms: _346  and  _347
REMARK  125  A    between atoms: _349  and  _351
REMARK  126  A    between atoms: _351  and  _352
REMARK  127  A    between atoms: _351  and  _354
REMARK  128  A    between atoms: _354  and  _355
REMARK  129  A    between atoms: _360  and  _362
REMARK  130  A    between atoms: _362  and  _363
REMARK  131  A    between atoms: _362  and  _365
REMARK  132  A    between atoms: _365  and  _366
REMARK  133  A    between atoms: _366  and  _367
REMARK  134  A    between atoms: _367  and  _368
REMARK  135  A    between atoms: _368  and  ZN_631
REMARK  136  A    between atoms: _370  and  _372
REMARK  137  A    between atoms: _372  and  _373
REMARK  138  A    between atoms: _372  and  _375
REMARK  139  A    between atoms: _375  and  _376
REMARK  140  A    between atoms: _378  and  _380
REMARK  141  A    between atoms: _380  and  _381
REMARK  142  A    between atoms: _380  and  _383
REMARK  143  A    between atoms: _383  and  _384
REMARK  144  A    between atoms: _387  and  _389
REMARK  145  A    between atoms: _389  and  _390
REMARK  146  A    between atoms: _392  and  _394
REMARK  147  A    between atoms: _394  and  _395
REMARK  148  A    between atoms: _394  and  _397
REMARK  149  A    between atoms: _397  and  _398
REMARK  150  A    between atoms: _401  and  _403
REMARK  151  A    between atoms: _403  and  _404
REMARK  152  A    between atoms: _406  and  _408
REMARK  153  A    between atoms: _408  and  _409
REMARK  154  A    between atoms: _408  and  _411
REMARK  155  A    between atoms: _411  and  _412
REMARK  156  A    between atoms: _412  and  _413
REMARK  157  A    between atoms: _416  and  _418
REMARK  158  A    between atoms: _418  and  _419
REMARK  159  A    between atoms: _418  and  _421
REMARK  160  A    between atoms: _424  and  _426
REMARK  161  A    between atoms: _426  and  _427
REMARK  162  A    between atoms: _426  and  _429
REMARK  163  A    between atoms: _429  and  _430
REMARK  164  A    between atoms: _435  and  _436
REMARK  165  A    between atoms: _438  and  _440
REMARK  166  A    between atoms: _440  and  _441
REMARK  167  A    between atoms: _440  and  _443
REMARK  168  A    between atoms: _443  and  _444
REMARK  169  A    between atoms: _447  and  _449
REMARK  170  A    between atoms: _449  and  _450
REMARK  171  A    between atoms: _449  and  _452
REMARK  172  A    between atoms: _452  and  _453
REMARK  173  A    between atoms: _453  and  _454
REMARK  174  A    between atoms: _454  and  _455
REMARK  175  A    between atoms: _464  and  _466
REMARK  176  A    between atoms: _466  and  _467
REMARK  177  A    between atoms: _466  and  _469
REMARK  178  A    between atoms: _469  and  _470
REMARK  179  A    between atoms: _473  and  _475
REMARK  180  A    between atoms: _475  and  _476
REMARK  181  A    between atoms: _475  and  _478
REMARK  182  A    between atoms: _478  and  _479
REMARK  183  A    between atoms: _484  and  _486
REMARK  184  A    between atoms: _486  and  _487
REMARK  185  A    between atoms: _486  and  _489
REMARK  186  A    between atoms: _492  and  _494
REMARK  187  A    between atoms: _494  and  _495
REMARK  188  A    between atoms: _494  and  _497
REMARK  189  A    between atoms: _497  and  _498
REMARK  190  A    between atoms: _503  and  _505
REMARK  191  A    between atoms: _505  and  _506
REMARK  192  A    between atoms: _505  and  _508
REMARK  193  A    between atoms: _508  and  _509
REMARK  194  A    between atoms: _512  and  _514
REMARK  195  A    between atoms: _514  and  _515
REMARK  196  A    between atoms: _514  and  _517
REMARK  197  A    between atoms: _517  and  _518
REMARK  198  A    between atoms: _520  and  _522
REMARK  199  A    between atoms: _522  and  _523
REMARK  200  A    between atoms: _522  and  _525
REMARK  201  A    between atoms: _525  and  _526
REMARK  202  A    between atoms: _526  and  _527
REMARK  203  A    between atoms: _527  and  _528
REMARK  204  A    between atoms: _537  and  _539
REMARK  205  A    between atoms: _539  and  _540
REMARK  206  A    between atoms: _539  and  _542
REMARK  207  A    between atoms: _542  and  _543
REMARK  208  A    between atoms: _546  and  _548
REMARK  209  A    between atoms: _548  and  _549
REMARK  210  A    between atoms: _548  and  _551
REMARK  211  A    between atoms: _551  and  _552
REMARK  212  A    between atoms: _555  and  _557
REMARK  213  A    between atoms: _557  and  _558
REMARK  214  A    between atoms: _557  and  _560
REMARK  215  A    between atoms: _560  and  _561
REMARK  216  A    between atoms: _564  and  _566
REMARK  217  A    between atoms: _566  and  _567
REMARK  218  A    between atoms: _566  and  _569
REMARK  219  A    between atoms: _569  and  _570
REMARK  220  A    between atoms: _575  and  _576
REMARK  221  A    between atoms: _578  and  _580
REMARK  222  A    between atoms: _580  and  _581
REMARK  223  A    between atoms: _580  and  _583
REMARK  224  A    between atoms: _583  and  _584
REMARK  225  A    between atoms: _586  and  _588
REMARK  226  A    between atoms: _588  and  _589
REMARK  227  A    between atoms: _588  and  _591
REMARK  228  A    between atoms: _591  and  _592
REMARK  229  A    between atoms: _597  and  _598
REMARK  230  A    between atoms: _600  and  _602
REMARK  231  A    between atoms: _602  and  _603
REMARK  232  A    between atoms: _602  and  _605
REMARK  233  A    between atoms: _605  and  _606
REMARK  234  A    between atoms: _612  and  _614
REMARK  235  A    between atoms: _614  and  _615
REMARK  236  A    between atoms: _614  and  _617
REMARK  237  A    between atoms: _620  and  _622
REMARK  238  A    between atoms: _622  and  _623
REMARK  239  A    between atoms: _622  and  _625
REMARK  240  A    between atoms: _625  and  _626
REMARK                            x       y       z     vdW  Elec       q    Type
REMARK                         _______ _______ _______ _____ _____    ______ ____
ROOT
ATOM      1  O   HOH     1      60.164  11.087  -1.707  0.00  0.00    +0.000 OA
ENDROOT
TORSDOF 0
REMARK  Name = ../refined-set-2016/4tmn/4tmn_pocket.pdb
REMARK  240 active torsions:
REMARK  status: ('A' for Active; 'I' for Inactive)
REMARK    1  A    between atoms: _1  and  _3
REMARK    2  A    between atoms: _3  and  _4
REMARK    3  A    between atoms: _3  and  _6
REMARK    4  A    between atoms: _6  and  _7
REMARK    5  A    between atoms: _12  and  _13
REMARK    6  A    between atoms: _15  and  _17
REMARK    7  A    between atoms: _17  and  _18
REMARK    8  A    between atoms: _17  and  _20
REMARK    9  A    between atoms: _20  and  _21
REMARK   10  A    between atoms: _26  and  _27
REMARK   11  A    between atoms: _29  and  _31
REMARK   12  A    between atoms: _31  and  _32
REMARK   13  A    between atoms: _31  and  _34
REMARK   14  A    between atoms: _34  and  _35
REMARK   15  A    between atoms: _40  and  _42
REMARK   16  A    between atoms: _42  and  _43
REMARK   17  A    between atoms: _42  and  _45
REMARK   18  A    between atoms: _45  and  _46
REMARK   19  A    between atoms: _51  and  _53
REMARK   20  A    between atoms: _53  and  _54
REMARK   21  A    between atoms: _57  and  _59
REMARK   22  A    between atoms: _59  and  _60
REMARK   23  A    between atoms: _59  and  _62
REMARK   24  A    between atoms: _62  and  _63
REMARK   25  A    between atoms: _69  and  _71
REMARK   26  A    between atoms: _71  and  _72
REMARK   27  A    between atoms: _71  and  _74
REMARK   28  A    between atoms: _74  and  _75
REMARK   29  A    between atoms: _85  and  _87
REMARK   30  A    between atoms: _87  and  _88
REMARK   31  A    between atoms: _87  and  _90
REMARK   32  A    between atoms: _90  and  _91
REMARK   33  A    between atoms: _96  and  _98
REMARK   34  A    between atoms: _98  and  _99
REMARK   35  A    between atoms: _103  and  _104
REMARK   36  A    between atoms: _103  and  _106
REMARK   37  A    between atoms: _106  and  _107
REMARK   38  A    between atoms: _109  and  _111
REMARK   39  A    between atoms: _111  and  _112
REMARK   40  A    between atoms: _111  and  _114
REMARK   41  A    between atoms: _114  and  _115
REMARK   42  A    between atoms: _115  and  _116
REMARK   43  A    between atoms: _119  and  _121
REMARK   44  A    between atoms: _121  and  _122
REMARK   45  A    between atoms: _121  and  _124
REMARK   46  A    between atoms: _124  and  _125
REMARK   47  A    between atoms: _125  and  _126
REMARK   48  A    between atoms: _128  and  _130
REMARK   49  A    between atoms: _130  and  _131
REMARK   50  A    between atoms: _130  and  _133
REMARK   51  A    between atoms: _136  and  _138
REMARK   52  A    between atoms: _138  and  _139
REMARK   53  A    between atoms: _138  and  _141
REMARK   54  A    between atoms: _141  and  _142
REMARK   55  A    between atoms: _147  and  _148
REMARK   56  A    between atoms: _150  and  _152
REMARK   57  A    between atoms: _152  and  _153
REMARK   58  A    between atoms: _155  and  _157
REMARK   59  A    between atoms: _157  and  _158
REMARK   60  A    between atoms: _157  and  _160
REMARK   61  A    between atoms: _160  and  _161
REMARK   62  A    between atoms: _164  and  _166
REMARK   63  A    between atoms: _166  and  _167
REMARK   64  A    between atoms: _166  and  _169
REMARK   65  A    between atoms: _169  and  _170
REMARK   66  A    between atoms: _176  and  _178
REMARK   67  A    between atoms: _178  and  _179
REMARK   68  A    between atoms: _178  and  _181
REMARK   69  A    between atoms: _181  and  _182
REMARK   70  A    between atoms: _185  and  _187
REMARK   71  A    between atoms: _187  and  _188
REMARK   72  A    between atoms: _190  and  _192
REMARK   73  A    between atoms: _192  and  _193
REMARK   74  A    between atoms: _192  and  _195
REMARK   75  A    between atoms: _195  and  _196
REMARK   76  A    between atoms: _199  and  _201
REMARK   77  A    between atoms: _201  and  _202
REMARK   78  A    between atoms: _201  and  _204
REMARK   79  A    between atoms: _207  and  _209
REMARK   80  A    between atoms: _209  and  _210
REMARK   81  A    between atoms: _209  and  _212
REMARK   82  A    between atoms: _215  and  _217
REMARK   83  A    between atoms: _217  and  _218
REMARK   84  A    between atoms: _221  and  _223
REMARK   85  A    between atoms: _234  and  _237
REMARK   86  A    between atoms: _237  and  _238
REMARK   87  A    between atoms: _238  and  _239
REMARK   88  A    between atoms: _244  and  _247
REMARK   89  A    between atoms: _247  and  _248
REMARK   90  A    between atoms: _253  and  _256
REMARK   91  A    between atoms: _256  and  _257
REMARK   92  A    between atoms: _262  and  _263
REMARK   93  A    between atoms: _271  and  _273
REMARK   94  A    between atoms: _273  and  _274
REMARK   95  A    between atoms: _277  and  _279
REMARK   96  A    between atoms: _279  and  _280
REMARK   97  A    between atoms: _279  and  _282
REMARK   98  A    between atoms: _282  and  _283
REMARK   99  A    between atoms: _286  and  _288
REMARK  100  A    between atoms: _288  and  _289
REMARK  101  A    between atoms: _288  and  _291
REMARK  102  A    between atoms: _291  and  _292
REMARK  103  A    between atoms: _295  and  _297
REMARK  104  A    between atoms: _297  and  _298
REMARK  105  A    between atoms: _300  and  _302
REMARK  106  A    between atoms: _302  and  _303
REMARK  107  A    between atoms: _302  and  _305
REMARK  108  A    between atoms: _305  and  _306
REMARK  109  A    between atoms: _309  and  _311
REMARK  110  A    between atoms: _311  and  _312
REMARK  111  A    between atoms: _311  and  _314
REMARK  112  A    between atoms: _314  and  _315
REMARK  113  A    between atoms: _318  and  _320
REMARK  114  A    between atoms: _320  and  _321
REMARK  115  A    between atoms: _320  and  _323
REMARK  116  A    between atoms: _323  and  _324
REMARK  117  A    between atoms: _329  and  _330
REMARK  118  A    between atoms: _332  and  _334
REMARK  119  A    between atoms: _334  and  _335
REMARK  120  A    between atoms: _334  and  _337
REMARK  121  A    between atoms: _337  and  _338
REMARK  122  A    between atoms: _338  and  _339
REMARK  123  A    between atoms: _344  and  _346
REMARK  124  A    between atoms: _346  and  _347
REMARK  125  A    between atoms: _349  and  _351
REMARK  126  A    between atoms: _351  and  _352
REMARK  127  A    between atoms: _351  and  _354
REMARK  128  A    between atoms: _354  and  _355
REMARK  129  A    between atoms: _360  and  _362
REMARK  130  A    between atoms: _362  and  _363
REMARK  131  A    between atoms: _362  and  _365
REMARK  132  A    between atoms: _365  and  _366
REMARK  133  A    between atoms: _366  and  _367
REMARK  134  A    between atoms: _367  and  _368
REMARK  135  A    between atoms: _368  and  ZN_631
REMARK  136  A    between atoms: _370  and  _372
REMARK  137  A    between atoms: _372  and  _373
REMARK  138  A    between atoms: _372  and  _375
REMARK  139  A    between atoms: _375  and  _376
REMARK  140  A    between atoms: _378  and  _380
REMARK  141  A    between atoms: _380  and  _381
REMARK  142  A    between atoms: _380  and  _383
REMARK  143  A    between atoms: _383  and  _384
REMARK  144  A    between atoms: _387  and  _389
REMARK  145  A    between atoms: _389  and  _390
REMARK  146  A    between atoms: _392  and  _394
REMARK  147  A    between atoms: _394  and  _395
REMARK  148  A    between atoms: _394  and  _397
REMARK  149  A    between atoms: _397  and  _398
REMARK  150  A    between atoms: _401  and  _403
REMARK  151  A    between atoms: _403  and  _404
REMARK  152  A    between atoms: _406  and  _408
REMARK  153  A    between atoms: _408  and  _409
REMARK  154  A    between atoms: _408  and  _411
REMARK  155  A    between atoms: _411  and  _412
REMARK  156  A    between atoms: _412  and  _413
REMARK  157  A    between atoms: _416  and  _418
REMARK  158  A    between atoms: _418  and  _419
REMARK  159  A    between atoms: _418  and  _421
REMARK  160  A    between atoms: _424  and  _426
REMARK  161  A    between atoms: _426  and  _427
REMARK  162  A    between atoms: _426  and  _429
REMARK  163  A    between atoms: _429  and  _430
REMARK  164  A    between atoms: _435  and  _436
REMARK  165  A    between atoms: _438  and  _440
REMARK  166  A    between atoms: _440  and  _441
REMARK  167  A    between atoms: _440  and  _443
REMARK  168  A    between atoms: _443  and  _444
REMARK  169  A    between atoms: _447  and  _449
REMARK  170  A    between atoms: _449  and  _450
REMARK  171  A    between atoms: _449  and  _452
REMARK  172  A    between atoms: _452  and  _453
REMARK  173  A    between atoms: _453  and  _454
REMARK  174  A    between atoms: _454  and  _455
REMARK  175  A    between atoms: _464  and  _466
REMARK  176  A    between atoms: _466  and  _467
REMARK  177  A    between atoms: _466  and  _469
REMARK  178  A    between atoms: _469  and  _470
REMARK  179  A    between atoms: _473  and  _475
REMARK  180  A    between atoms: _475  and  _476
REMARK  181  A    between atoms: _475  and  _478
REMARK  182  A    between atoms: _478  and  _479
REMARK  183  A    between atoms: _484  and  _486
REMARK  184  A    between atoms: _486  and  _487
REMARK  185  A    between atoms: _486  and  _489
REMARK  186  A    between atoms: _492  and  _494
REMARK  187  A    between atoms: _494  and  _495
REMARK  188  A    between atoms: _494  and  _497
REMARK  189  A    between atoms: _497  and  _498
REMARK  190  A    between atoms: _503  and  _505
REMARK  191  A    between atoms: _505  and  _506
REMARK  192  A    between atoms: _505  and  _508
REMARK  193  A    between atoms: _508  and  _509
REMARK  194  A    between atoms: _512  and  _514
REMARK  195  A    between atoms: _514  and  _515
REMARK  196  A    between atoms: _514  and  _517
REMARK  197  A    between atoms: _517  and  _518
REMARK  198  A    between atoms: _520  and  _522
REMARK  199  A    between atoms: _522  and  _523
REMARK  200  A    between atoms: _522  and  _525
REMARK  201  A    between atoms: _525  and  _526
REMARK  202  A    between atoms: _526  and  _527
REMARK  203  A    between atoms: _527  and  _528
REMARK  204  A    between atoms: _537  and  _539
REMARK  205  A    between atoms: _539  and  _540
REMARK  206  A    between atoms: _539  and  _542
REMARK  207  A    between atoms: _542  and  _543
REMARK  208  A    between atoms: _546  and  _548
REMARK  209  A    between atoms: _548  and  _549
REMARK  210  A    between atoms: _548  and  _551
REMARK  211  A    between atoms: _551  and  _552
REMARK  212  A    between atoms: _555  and  _557
REMARK  213  A    between atoms: _557  and  _558
REMARK  214  A    between atoms: _557  and  _560
REMARK  215  A    between atoms: _560  and  _561
REMARK  216  A    between atoms: _564  and  _566
REMARK  217  A    between atoms: _566  and  _567
REMARK  218  A    between atoms: _566  and  _569
REMARK  219  A    between atoms: _569  and  _570
REMARK  220  A    between atoms: _575  and  _576
REMARK  221  A    between atoms: _578  and  _580
REMARK  222  A    between atoms: _580  and  _581
REMARK  223  A    between atoms: _580  and  _583
REMARK  224  A    between atoms: _583  and  _584
REMARK  225  A    between atoms: _586  and  _588
REMARK  226  A    between atoms: _588  and  _589
REMARK  227  A    between atoms: _588  and  _591
REMARK  228  A    between atoms: _591  and  _592
REMARK  229  A    between atoms: _597  and  _598
REMARK  230  A    between atoms: _600  and  _602
REMARK  231  A    between atoms: _602  and  _603
REMARK  232  A    between atoms: _602  and  _605
REMARK  233  A    between atoms: _605  and  _606
REMARK  234  A    between atoms: _612  and  _614
REMARK  235  A    between atoms: _614  and  _615
REMARK  236  A    between atoms: _614  and  _617
REMARK  237  A    between atoms: _620  and  _622
REMARK  238  A    between atoms: _622  and  _623
REMARK  239  A    between atoms: _622  and  _625
REMARK  240  A    between atoms: _625  and  _626
REMARK                            x       y       z     vdW  Elec       q    Type
REMARK                         _______ _______ _______ _____ _____    ______ ____
ROOT
ATOM      1  O   HOH     1      52.978  24.972 -12.959  0.00  0.00    +0.000 OA
ENDROOT
TORSDOF 0
REMARK  Name = ../refined-set-2016/4tmn/4tmn_pocket.pdb
REMARK  240 active torsions:
REMARK  status: ('A' for Active; 'I' for Inactive)
REMARK    1  A    between atoms: _1  and  _3
REMARK    2  A    between atoms: _3  and  _4
REMARK    3  A    between atoms: _3  and  _6
REMARK    4  A    between atoms: _6  and  _7
REMARK    5  A    between atoms: _12  and  _13
REMARK    6  A    between atoms: _15  and  _17
REMARK    7  A    between atoms: _17  and  _18
REMARK    8  A    between atoms: _17  and  _20
REMARK    9  A    between atoms: _20  and  _21
REMARK   10  A    between atoms: _26  and  _27
REMARK   11  A    between atoms: _29  and  _31
REMARK   12  A    between atoms: _31  and  _32
REMARK   13  A    between atoms: _31  and  _34
REMARK   14  A    between atoms: _34  and  _35
REMARK   15  A    between atoms: _40  and  _42
REMARK   16  A    between atoms: _42  and  _43
REMARK   17  A    between atoms: _42  and  _45
REMARK   18  A    between atoms: _45  and  _46
REMARK   19  A    between atoms: _51  and  _53
REMARK   20  A    between atoms: _53  and  _54
REMARK   21  A    between atoms: _57  and  _59
REMARK   22  A    between atoms: _59  and  _60
REMARK   23  A    between atoms: _59  and  _62
REMARK   24  A    between atoms: _62  and  _63
REMARK   25  A    between atoms: _69  and  _71
REMARK   26  A    between atoms: _71  and  _72
REMARK   27  A    between atoms: _71  and  _74
REMARK   28  A    between atoms: _74  and  _75
REMARK   29  A    between atoms: _85  and  _87
REMARK   30  A    between atoms: _87  and  _88
REMARK   31  A    between atoms: _87  and  _90
REMARK   32  A    between atoms: _90  and  _91
REMARK   33  A    between atoms: _96  and  _98
REMARK   34  A    between atoms: _98  and  _99
REMARK   35  A    between atoms: _103  and  _104
REMARK   36  A    between atoms: _103  and  _106
REMARK   37  A    between atoms: _106  and  _107
REMARK   38  A    between atoms: _109  and  _111
REMARK   39  A    between atoms: _111  and  _112
REMARK   40  A    between atoms: _111  and  _114
REMARK   41  A    between atoms: _114  and  _115
REMARK   42  A    between atoms: _115  and  _116
REMARK   43  A    between atoms: _119  and  _121
REMARK   44  A    between atoms: _121  and  _122
REMARK   45  A    between atoms: _121  and  _124
REMARK   46  A    between atoms: _124  and  _125
REMARK   47  A    between atoms: _125  and  _126
REMARK   48  A    between atoms: _128  and  _130
REMARK   49  A    between atoms: _130  and  _131
REMARK   50  A    between atoms: _130  and  _133
REMARK   51  A    between atoms: _136  and  _138
REMARK   52  A    between atoms: _138  and  _139
REMARK   53  A    between atoms: _138  and  _141
REMARK   54  A    between atoms: _141  and  _142
REMARK   55  A    between atoms: _147  and  _148
REMARK   56  A    between atoms: _150  and  _152
REMARK   57  A    between atoms: _152  and  _153
REMARK   58  A    between atoms: _155  and  _157
REMARK   59  A    between atoms: _157  and  _158
REMARK   60  A    between atoms: _157  and  _160
REMARK   61  A    between atoms: _160  and  _161
REMARK   62  A    between atoms: _164  and  _166
REMARK   63  A    between atoms: _166  and  _167
REMARK   64  A    between atoms: _166  and  _169
REMARK   65  A    between atoms: _169  and  _170
REMARK   66  A    between atoms: _176  and  _178
REMARK   67  A    between atoms: _178  and  _179
REMARK   68  A    between atoms: _178  and  _181
REMARK   69  A    between atoms: _181  and  _182
REMARK   70  A    between atoms: _185  and  _187
REMARK   71  A    between atoms: _187  and  _188
REMARK   72  A    between atoms: _190  and  _192
REMARK   73  A    between atoms: _192  and  _193
REMARK   74  A    between atoms: _192  and  _195
REMARK   75  A    between atoms: _195  and  _196
REMARK   76  A    between atoms: _199  and  _201
REMARK   77  A    between atoms: _201  and  _202
REMARK   78  A    between atoms: _201  and  _204
REMARK   79  A    between atoms: _207  and  _209
REMARK   80  A    between atoms: _209  and  _210
REMARK   81  A    between atoms: _209  and  _212
REMARK   82  A    between atoms: _215  and  _217
REMARK   83  A    between atoms: _217  and  _218
REMARK   84  A    between atoms: _221  and  _223
REMARK   85  A    between atoms: _234  and  _237
REMARK   86  A    between atoms: _237  and  _238
REMARK   87  A    between atoms: _238  and  _239
REMARK   88  A    between atoms: _244  and  _247
REMARK   89  A    between atoms: _247  and  _248
REMARK   90  A    between atoms: _253  and  _256
REMARK   91  A    between atoms: _256  and  _257
REMARK   92  A    between atoms: _262  and  _263
REMARK   93  A    between atoms: _271  and  _273
REMARK   94  A    between atoms: _273  and  _274
REMARK   95  A    between atoms: _277  and  _279
REMARK   96  A    between atoms: _279  and  _280
REMARK   97  A    between atoms: _279  and  _282
REMARK   98  A    between atoms: _282  and  _283
REMARK   99  A    between atoms: _286  and  _288
REMARK  100  A    between atoms: _288  and  _289
REMARK  101  A    between atoms: _288  and  _291
REMARK  102  A    between atoms: _291  and  _292
REMARK  103  A    between atoms: _295  and  _297
REMARK  104  A    between atoms: _297  and  _298
REMARK  105  A    between atoms: _300  and  _302
REMARK  106  A    between atoms: _302  and  _303
REMARK  107  A    between atoms: _302  and  _305
REMARK  108  A    between atoms: _305  and  _306
REMARK  109  A    between atoms: _309  and  _311
REMARK  110  A    between atoms: _311  and  _312
REMARK  111  A    between atoms: _311  and  _314
REMARK  112  A    between atoms: _314  and  _315
REMARK  113  A    between atoms: _318  and  _320
REMARK  114  A    between atoms: _320  and  _321
REMARK  115  A    between atoms: _320  and  _323
REMARK  116  A    between atoms: _323  and  _324
REMARK  117  A    between atoms: _329  and  _330
REMARK  118  A    between atoms: _332  and  _334
REMARK  119  A    between atoms: _334  and  _335
REMARK  120  A    between atoms: _334  and  _337
REMARK  121  A    between atoms: _337  and  _338
REMARK  122  A    between atoms: _338  and  _339
REMARK  123  A    between atoms: _344  and  _346
REMARK  124  A    between atoms: _346  and  _347
REMARK  125  A    between atoms: _349  and  _351
REMARK  126  A    between atoms: _351  and  _352
REMARK  127  A    between atoms: _351  and  _354
REMARK  128  A    between atoms: _354  and  _355
REMARK  129  A    between atoms: _360  and  _362
REMARK  130  A    between atoms: _362  and  _363
REMARK  131  A    between atoms: _362  and  _365
REMARK  132  A    between atoms: _365  and  _366
REMARK  133  A    between atoms: _366  and  _367
REMARK  134  A    between atoms: _367  and  _368
REMARK  135  A    between atoms: _368  and  ZN_631
REMARK  136  A    between atoms: _370  and  _372
REMARK  137  A    between atoms: _372  and  _373
REMARK  138  A    between atoms: _372  and  _375
REMARK  139  A    between atoms: _375  and  _376
REMARK  140  A    between atoms: _378  and  _380
REMARK  141  A    between atoms: _380  and  _381
REMARK  142  A    between atoms: _380  and  _383
REMARK  143  A    between atoms: _383  and  _384
REMARK  144  A    between atoms: _387  and  _389
REMARK  145  A    between atoms: _389  and  _390
REMARK  146  A    between atoms: _392  and  _394
REMARK  147  A    between atoms: _394  and  _395
REMARK  148  A    between atoms: _394  and  _397
REMARK  149  A    between atoms: _397  and  _398
REMARK  150  A    between atoms: _401  and  _403
REMARK  151  A    between atoms: _403  and  _404
REMARK  152  A    between atoms: _406  and  _408
REMARK  153  A    between atoms: _408  and  _409
REMARK  154  A    between atoms: _408  and  _411
REMARK  155  A    between atoms: _411  and  _412
REMARK  156  A    between atoms: _412  and  _413
REMARK  157  A    between atoms: _416  and  _418
REMARK  158  A    between atoms: _418  and  _419
REMARK  159  A    between atoms: _418  and  _421
REMARK  160  A    between atoms: _424  and  _426
REMARK  161  A    between atoms: _426  and  _427
REMARK  162  A    between atoms: _426  and  _429
REMARK  163  A    between atoms: _429  and  _430
REMARK  164  A    between atoms: _435  and  _436
REMARK  165  A    between atoms: _438  and  _440
REMARK  166  A    between atoms: _440  and  _441
REMARK  167  A    between atoms: _440  and  _443
REMARK  168  A    between atoms: _443  and  _444
REMARK  169  A    between atoms: _447  and  _449
REMARK  170  A    between atoms: _449  and  _450
REMARK  171  A    between atoms: _449  and  _452
REMARK  172  A    between atoms: _452  and  _453
REMARK  173  A    between atoms: _453  and  _454
REMARK  174  A    between atoms: _454  and  _455
REMARK  175  A    between atoms: _464  and  _466
REMARK  176  A    between atoms: _466  and  _467
REMARK  177  A    between atoms: _466  and  _469
REMARK  178  A    between atoms: _469  and  _470
REMARK  179  A    between atoms: _473  and  _475
REMARK  180  A    between atoms: _475  and  _476
REMARK  181  A    between atoms: _475  and  _478
REMARK  182  A    between atoms: _478  and  _479
REMARK  183  A    between atoms: _484  and  _486
REMARK  184  A    between atoms: _486  and  _487
REMARK  185  A    between atoms: _486  and  _489
REMARK  186  A    between atoms: _492  and  _494
REMARK  187  A    between atoms: _494  and  _495
REMARK  188  A    between atoms: _494  and  _497
REMARK  189  A    between atoms: _497  and  _498
REMARK  190  A    between atoms: _503  and  _505
REMARK  191  A    between atoms: _505  and  _506
REMARK  192  A    between atoms: _505  and  _508
REMARK  193  A    between atoms: _508  and  _509
REMARK  194  A    between atoms: _512  and  _514
REMARK  195  A    between atoms: _514  and  _515
REMARK  196  A    between atoms: _514  and  _517
REMARK  197  A    between atoms: _517  and  _518
REMARK  198  A    between atoms: _520  and  _522
REMARK  199  A    between atoms: _522  and  _523
REMARK  200  A    between atoms: _522  and  _525
REMARK  201  A    between atoms: _525  and  _526
REMARK  202  A    between atoms: _526  and  _527
REMARK  203  A    between atoms: _527  and  _528
REMARK  204  A    between atoms: _537  and  _539
REMARK  205  A    between atoms: _539  and  _540
REMARK  206  A    between atoms: _539  and  _542
REMARK  207  A    between atoms: _542  and  _543
REMARK  208  A    between atoms: _546  and  _548
REMARK  209  A    between atoms: _548  and  _549
REMARK  210  A    between atoms: _548  and  _551
REMARK  211  A    between atoms: _551  and  _552
REMARK  212  A    between atoms: _555  and  _557
REMARK  213  A    between atoms: _557  and  _558
REMARK  214  A    between atoms: _557  and  _560
REMARK  215  A    between atoms: _560  and  _561
REMARK  216  A    between atoms: _564  and  _566
REMARK  217  A    between atoms: _566  and  _567
REMARK  218  A    between atoms: _566  and  _569
REMARK  219  A    between atoms: _569  and  _570
REMARK  220  A    between atoms: _575  and  _576
REMARK  221  A    between atoms: _578  and  _580
REMARK  222  A    between atoms: _580  and  _581
REMARK  223  A    between atoms: _580  and  _583
REMARK  224  A    between atoms: _583  and  _584
REMARK  225  A    between atoms: _586  and  _588
REMARK  226  A    between atoms: _588  and  _589
REMARK  227  A    between atoms: _588  and  _591
REMARK  228  A    between atoms: _591  and  _592
REMARK  229  A    between atoms: _597  and  _598
REMARK  230  A    between atoms: _600  and  _602
REMARK  231  A    between atoms: _602  and  _603
REMARK  232  A    between atoms: _602  and  _605
REMARK  233  A    between atoms: _605  and  _606
REMARK  234  A    between atoms: _612  and  _614
REMARK  235  A    between atoms: _614  and  _615
REMARK  236  A    between atoms: _614  and  _617
REMARK  237  A    between atoms: _620  and  _622
REMARK  238  A    between atoms: _622  and  _623
REMARK  239  A    between atoms: _622  and  _625
REMARK  240  A    between atoms: _625  and  _626
REMARK                            x       y       z     vdW  Elec       q    Type
REMARK                         _______ _______ _______ _____ _____    ______ ____
ROOT
ATOM      1  O   HOH     1      48.611  24.800 -13.465  0.00  0.00    +0.000 OA
ENDROOT
TORSDOF 0
REMARK  Name = ../refined-set-2016/4tmn/4tmn_pocket.pdb
REMARK  240 active torsions:
REMARK  status: ('A' for Active; 'I' for Inactive)
REMARK    1  A    between atoms: _1  and  _3
REMARK    2  A    between atoms: _3  and  _4
REMARK    3  A    between atoms: _3  and  _6
REMARK    4  A    between atoms: _6  and  _7
REMARK    5  A    between atoms: _12  and  _13
REMARK    6  A    between atoms: _15  and  _17
REMARK    7  A    between atoms: _17  and  _18
REMARK    8  A    between atoms: _17  and  _20
REMARK    9  A    between atoms: _20  and  _21
REMARK   10  A    between atoms: _26  and  _27
REMARK   11  A    between atoms: _29  and  _31
REMARK   12  A    between atoms: _31  and  _32
REMARK   13  A    between atoms: _31  and  _34
REMARK   14  A    between atoms: _34  and  _35
REMARK   15  A    between atoms: _40  and  _42
REMARK   16  A    between atoms: _42  and  _43
REMARK   17  A    between atoms: _42  and  _45
REMARK   18  A    between atoms: _45  and  _46
REMARK   19  A    between atoms: _51  and  _53
REMARK   20  A    between atoms: _53  and  _54
REMARK   21  A    between atoms: _57  and  _59
REMARK   22  A    between atoms: _59  and  _60
REMARK   23  A    between atoms: _59  and  _62
REMARK   24  A    between atoms: _62  and  _63
REMARK   25  A    between atoms: _69  and  _71
REMARK   26  A    between atoms: _71  and  _72
REMARK   27  A    between atoms: _71  and  _74
REMARK   28  A    between atoms: _74  and  _75
REMARK   29  A    between atoms: _85  and  _87
REMARK   30  A    between atoms: _87  and  _88
REMARK   31  A    between atoms: _87  and  _90
REMARK   32  A    between atoms: _90  and  _91
REMARK   33  A    between atoms: _96  and  _98
REMARK   34  A    between atoms: _98  and  _99
REMARK   35  A    between atoms: _103  and  _104
REMARK   36  A    between atoms: _103  and  _106
REMARK   37  A    between atoms: _106  and  _107
REMARK   38  A    between atoms: _109  and  _111
REMARK   39  A    between atoms: _111  and  _112
REMARK   40  A    between atoms: _111  and  _114
REMARK   41  A    between atoms: _114  and  _115
REMARK   42  A    between atoms: _115  and  _116
REMARK   43  A    between atoms: _119  and  _121
REMARK   44  A    between atoms: _121  and  _122
REMARK   45  A    between atoms: _121  and  _124
REMARK   46  A    between atoms: _124  and  _125
REMARK   47  A    between atoms: _125  and  _126
REMARK   48  A    between atoms: _128  and  _130
REMARK   49  A    between atoms: _130  and  _131
REMARK   50  A    between atoms: _130  and  _133
REMARK   51  A    between atoms: _136  and  _138
REMARK   52  A    between atoms: _138  and  _139
REMARK   53  A    between atoms: _138  and  _141
REMARK   54  A    between atoms: _141  and  _142
REMARK   55  A    between atoms: _147  and  _148
REMARK   56  A    between atoms: _150  and  _152
REMARK   57  A    between atoms: _152  and  _153
REMARK   58  A    between atoms: _155  and  _157
REMARK   59  A    between atoms: _157  and  _158
REMARK   60  A    between atoms: _157  and  _160
REMARK   61  A    between atoms: _160  and  _161
REMARK   62  A    between atoms: _164  and  _166
REMARK   63  A    between atoms: _166  and  _167
REMARK   64  A    between atoms: _166  and  _169
REMARK   65  A    between atoms: _169  and  _170
REMARK   66  A    between atoms: _176  and  _178
REMARK   67  A    between atoms: _178  and  _179
REMARK   68  A    between atoms: _178  and  _181
REMARK   69  A    between atoms: _181  and  _182
REMARK   70  A    between atoms: _185  and  _187
REMARK   71  A    between atoms: _187  and  _188
REMARK   72  A    between atoms: _190  and  _192
REMARK   73  A    between atoms: _192  and  _193
REMARK   74  A    between atoms: _192  and  _195
REMARK   75  A    between atoms: _195  and  _196
REMARK   76  A    between atoms: _199  and  _201
REMARK   77  A    between atoms: _201  and  _202
REMARK   78  A    between atoms: _201  and  _204
REMARK   79  A    between atoms: _207  and  _209
REMARK   80  A    between atoms: _209  and  _210
REMARK   81  A    between atoms: _209  and  _212
REMARK   82  A    between atoms: _215  and  _217
REMARK   83  A    between atoms: _217  and  _218
REMARK   84  A    between atoms: _221  and  _223
REMARK   85  A    between atoms: _234  and  _237
REMARK   86  A    between atoms: _237  and  _238
REMARK   87  A    between atoms: _238  and  _239
REMARK   88  A    between atoms: _244  and  _247
REMARK   89  A    between atoms: _247  and  _248
REMARK   90  A    between atoms: _253  and  _256
REMARK   91  A    between atoms: _256  and  _257
REMARK   92  A    between atoms: _262  and  _263
REMARK   93  A    between atoms: _271  and  _273
REMARK   94  A    between atoms: _273  and  _274
REMARK   95  A    between atoms: _277  and  _279
REMARK   96  A    between atoms: _279  and  _280
REMARK   97  A    between atoms: _279  and  _282
REMARK   98  A    between atoms: _282  and  _283
REMARK   99  A    between atoms: _286  and  _288
REMARK  100  A    between atoms: _288  and  _289
REMARK  101  A    between atoms: _288  and  _291
REMARK  102  A    between atoms: _291  and  _292
REMARK  103  A    between atoms: _295  and  _297
REMARK  104  A    between atoms: _297  and  _298
REMARK  105  A    between atoms: _300  and  _302
REMARK  106  A    between atoms: _302  and  _303
REMARK  107  A    between atoms: _302  and  _305
REMARK  108  A    between atoms: _305  and  _306
REMARK  109  A    between atoms: _309  and  _311
REMARK  110  A    between atoms: _311  and  _312
REMARK  111  A    between atoms: _311  and  _314
REMARK  112  A    between atoms: _314  and  _315
REMARK  113  A    between atoms: _318  and  _320
REMARK  114  A    between atoms: _320  and  _321
REMARK  115  A    between atoms: _320  and  _323
REMARK  116  A    between atoms: _323  and  _324
REMARK  117  A    between atoms: _329  and  _330
REMARK  118  A    between atoms: _332  and  _334
REMARK  119  A    between atoms: _334  and  _335
REMARK  120  A    between atoms: _334  and  _337
REMARK  121  A    between atoms: _337  and  _338
REMARK  122  A    between atoms: _338  and  _339
REMARK  123  A    between atoms: _344  and  _346
REMARK  124  A    between atoms: _346  and  _347
REMARK  125  A    between atoms: _349  and  _351
REMARK  126  A    between atoms: _351  and  _352
REMARK  127  A    between atoms: _351  and  _354
REMARK  128  A    between atoms: _354  and  _355
REMARK  129  A    between atoms: _360  and  _362
REMARK  130  A    between atoms: _362  and  _363
REMARK  131  A    between atoms: _362  and  _365
REMARK  132  A    between atoms: _365  and  _366
REMARK  133  A    between atoms: _366  and  _367
REMARK  134  A    between atoms: _367  and  _368
REMARK  135  A    between atoms: _368  and  ZN_631
REMARK  136  A    between atoms: _370  and  _372
REMARK  137  A    between atoms: _372  and  _373
REMARK  138  A    between atoms: _372  and  _375
REMARK  139  A    between atoms: _375  and  _376
REMARK  140  A    between atoms: _378  and  _380
REMARK  141  A    between atoms: _380  and  _381
REMARK  142  A    between atoms: _380  and  _383
REMARK  143  A    between atoms: _383  and  _384
REMARK  144  A    between atoms: _387  and  _389
REMARK  145  A    between atoms: _389  and  _390
REMARK  146  A    between atoms: _392  and  _394
REMARK  147  A    between atoms: _394  and  _395
REMARK  148  A    between atoms: _394  and  _397
REMARK  149  A    between atoms: _397  and  _398
REMARK  150  A    between atoms: _401  and  _403
REMARK  151  A    between atoms: _403  and  _404
REMARK  152  A    between atoms: _406  and  _408
REMARK  153  A    between atoms: _408  and  _409
REMARK  154  A    between atoms: _408  and  _411
REMARK  155  A    between atoms: _411  and  _412
REMARK  156  A    between atoms: _412  and  _413
REMARK  157  A    between atoms: _416  and  _418
REMARK  158  A    between atoms: _418  and  _419
REMARK  159  A    between atoms: _418  and  _421
REMARK  160  A    between atoms: _424  and  _426
REMARK  161  A    between atoms: _426  and  _427
REMARK  162  A    between atoms: _426  and  _429
REMARK  163  A    between atoms: _429  and  _430
REMARK  164  A    between atoms: _435  and  _436
REMARK  165  A    between atoms: _438  and  _440
REMARK  166  A    between atoms: _440  and  _441
REMARK  167  A    between atoms: _440  and  _443
REMARK  168  A    between atoms: _443  and  _444
REMARK  169  A    between atoms: _447  and  _449
REMARK  170  A    between atoms: _449  and  _450
REMARK  171  A    between atoms: _449  and  _452
REMARK  172  A    between atoms: _452  and  _453
REMARK  173  A    between atoms: _453  and  _454
REMARK  174  A    between atoms: _454  and  _455
REMARK  175  A    between atoms: _464  and  _466
REMARK  176  A    between atoms: _466  and  _467
REMARK  177  A    between atoms: _466  and  _469
REMARK  178  A    between atoms: _469  and  _470
REMARK  179  A    between atoms: _473  and  _475
REMARK  180  A    between atoms: _475  and  _476
REMARK  181  A    between atoms: _475  and  _478
REMARK  182  A    between atoms: _478  and  _479
REMARK  183  A    between atoms: _484  and  _486
REMARK  184  A    between atoms: _486  and  _487
REMARK  185  A    between atoms: _486  and  _489
REMARK  186  A    between atoms: _492  and  _494
REMARK  187  A    between atoms: _494  and  _495
REMARK  188  A    between atoms: _494  and  _497
REMARK  189  A    between atoms: _497  and  _498
REMARK  190  A    between atoms: _503  and  _505
REMARK  191  A    between atoms: _505  and  _506
REMARK  192  A    between atoms: _505  and  _508
REMARK  193  A    between atoms: _508  and  _509
REMARK  194  A    between atoms: _512  and  _514
REMARK  195  A    between atoms: _514  and  _515
REMARK  196  A    between atoms: _514  and  _517
REMARK  197  A    between atoms: _517  and  _518
REMARK  198  A    between atoms: _520  and  _522
REMARK  199  A    between atoms: _522  and  _523
REMARK  200  A    between atoms: _522  and  _525
REMARK  201  A    between atoms: _525  and  _526
REMARK  202  A    between atoms: _526  and  _527
REMARK  203  A    between atoms: _527  and  _528
REMARK  204  A    between atoms: _537  and  _539
REMARK  205  A    between atoms: _539  and  _540
REMARK  206  A    between atoms: _539  and  _542
REMARK  207  A    between atoms: _542  and  _543
REMARK  208  A    between atoms: _546  and  _548
REMARK  209  A    between atoms: _548  and  _549
REMARK  210  A    between atoms: _548  and  _551
REMARK  211  A    between atoms: _551  and  _552
REMARK  212  A    between atoms: _555  and  _557
REMARK  213  A    between atoms: _557  and  _558
REMARK  214  A    between atoms: _557  and  _560
REMARK  215  A    between atoms: _560  and  _561
REMARK  216  A    between atoms: _564  and  _566
REMARK  217  A    between atoms: _566  and  _567
REMARK  218  A    between atoms: _566  and  _569
REMARK  219  A    between atoms: _569  and  _570
REMARK  220  A    between atoms: _575  and  _576
REMARK  221  A    between atoms: _578  and  _580
REMARK  222  A    between atoms: _580  and  _581
REMARK  223  A    between atoms: _580  and  _583
REMARK  224  A    between atoms: _583  and  _584
REMARK  225  A    between atoms: _586  and  _588
REMARK  226  A    between atoms: _588  and  _589
REMARK  227  A    between atoms: _588  and  _591
REMARK  228  A    between atoms: _591  and  _592
REMARK  229  A    between atoms: _597  and  _598
REMARK  230  A    between atoms: _600  and  _602
REMARK  231  A    between atoms: _602  and  _603
REMARK  232  A    between atoms: _602  and  _605
REMARK  233  A    between atoms: _605  and  _606
REMARK  234  A    between atoms: _612  and  _614
REMARK  235  A    between atoms: _614  and  _615
REMARK  236  A    between atoms: _614  and  _617
REMARK  237  A    between atoms: _620  and  _622
REMARK  238  A    between atoms: _622  and  _623
REMARK  239  A    between atoms: _622  and  _625
REMARK  240  A    between atoms: _625  and  _626
REMARK                            x       y       z     vdW  Elec       q    Type
REMARK                         _______ _______ _______ _____ _____    ______ ____
ROOT
ATOM      1  O   HOH     1      51.975  22.366 -14.796  0.00  0.00    +0.000 OA
ENDROOT
TORSDOF 0
REMARK  Name = ../refined-set-2016/4tmn/4tmn_pocket.pdb
REMARK  240 active torsions:
REMARK  status: ('A' for Active; 'I' for Inactive)
REMARK    1  A    between atoms: _1  and  _3
REMARK    2  A    between atoms: _3  and  _4
REMARK    3  A    between atoms: _3  and  _6
REMARK    4  A    between atoms: _6  and  _7
REMARK    5  A    between atoms: _12  and  _13
REMARK    6  A    between atoms: _15  and  _17
REMARK    7  A    between atoms: _17  and  _18
REMARK    8  A    between atoms: _17  and  _20
REMARK    9  A    between atoms: _20  and  _21
REMARK   10  A    between atoms: _26  and  _27
REMARK   11  A    between atoms: _29  and  _31
REMARK   12  A    between atoms: _31  and  _32
REMARK   13  A    between atoms: _31  and  _34
REMARK   14  A    between atoms: _34  and  _35
REMARK   15  A    between atoms: _40  and  _42
REMARK   16  A    between atoms: _42  and  _43
REMARK   17  A    between atoms: _42  and  _45
REMARK   18  A    between atoms: _45  and  _46
REMARK   19  A    between atoms: _51  and  _53
REMARK   20  A    between atoms: _53  and  _54
REMARK   21  A    between atoms: _57  and  _59
REMARK   22  A    between atoms: _59  and  _60
REMARK   23  A    between atoms: _59  and  _62
REMARK   24  A    between atoms: _62  and  _63
REMARK   25  A    between atoms: _69  and  _71
REMARK   26  A    between atoms: _71  and  _72
REMARK   27  A    between atoms: _71  and  _74
REMARK   28  A    between atoms: _74  and  _75
REMARK   29  A    between atoms: _85  and  _87
REMARK   30  A    between atoms: _87  and  _88
REMARK   31  A    between atoms: _87  and  _90
REMARK   32  A    between atoms: _90  and  _91
REMARK   33  A    between atoms: _96  and  _98
REMARK   34  A    between atoms: _98  and  _99
REMARK   35  A    between atoms: _103  and  _104
REMARK   36  A    between atoms: _103  and  _106
REMARK   37  A    between atoms: _106  and  _107
REMARK   38  A    between atoms: _109  and  _111
REMARK   39  A    between atoms: _111  and  _112
REMARK   40  A    between atoms: _111  and  _114
REMARK   41  A    between atoms: _114  and  _115
REMARK   42  A    between atoms: _115  and  _116
REMARK   43  A    between atoms: _119  and  _121
REMARK   44  A    between atoms: _121  and  _122
REMARK   45  A    between atoms: _121  and  _124
REMARK   46  A    between atoms: _124  and  _125
REMARK   47  A    between atoms: _125  and  _126
REMARK   48  A    between atoms: _128  and  _130
REMARK   49  A    between atoms: _130  and  _131
REMARK   50  A    between atoms: _130  and  _133
REMARK   51  A    between atoms: _136  and  _138
REMARK   52  A    between atoms: _138  and  _139
REMARK   53  A    between atoms: _138  and  _141
REMARK   54  A    between atoms: _141  and  _142
REMARK   55  A    between atoms: _147  and  _148
REMARK   56  A    between atoms: _150  and  _152
REMARK   57  A    between atoms: _152  and  _153
REMARK   58  A    between atoms: _155  and  _157
REMARK   59  A    between atoms: _157  and  _158
REMARK   60  A    between atoms: _157  and  _160
REMARK   61  A    between atoms: _160  and  _161
REMARK   62  A    between atoms: _164  and  _166
REMARK   63  A    between atoms: _166  and  _167
REMARK   64  A    between atoms: _166  and  _169
REMARK   65  A    between atoms: _169  and  _170
REMARK   66  A    between atoms: _176  and  _178
REMARK   67  A    between atoms: _178  and  _179
REMARK   68  A    between atoms: _178  and  _181
REMARK   69  A    between atoms: _181  and  _182
REMARK   70  A    between atoms: _185  and  _187
REMARK   71  A    between atoms: _187  and  _188
REMARK   72  A    between atoms: _190  and  _192
REMARK   73  A    between atoms: _192  and  _193
REMARK   74  A    between atoms: _192  and  _195
REMARK   75  A    between atoms: _195  and  _196
REMARK   76  A    between atoms: _199  and  _201
REMARK   77  A    between atoms: _201  and  _202
REMARK   78  A    between atoms: _201  and  _204
REMARK   79  A    between atoms: _207  and  _209
REMARK   80  A    between atoms: _209  and  _210
REMARK   81  A    between atoms: _209  and  _212
REMARK   82  A    between atoms: _215  and  _217
REMARK   83  A    between atoms: _217  and  _218
REMARK   84  A    between atoms: _221  and  _223
REMARK   85  A    between atoms: _234  and  _237
REMARK   86  A    between atoms: _237  and  _238
REMARK   87  A    between atoms: _238  and  _239
REMARK   88  A    between atoms: _244  and  _247
REMARK   89  A    between atoms: _247  and  _248
REMARK   90  A    between atoms: _253  and  _256
REMARK   91  A    between atoms: _256  and  _257
REMARK   92  A    between atoms: _262  and  _263
REMARK   93  A    between atoms: _271  and  _273
REMARK   94  A    between atoms: _273  and  _274
REMARK   95  A    between atoms: _277  and  _279
REMARK   96  A    between atoms: _279  and  _280
REMARK   97  A    between atoms: _279  and  _282
REMARK   98  A    between atoms: _282  and  _283
REMARK   99  A    between atoms: _286  and  _288
REMARK  100  A    between atoms: _288  and  _289
REMARK  101  A    between atoms: _288  and  _291
REMARK  102  A    between atoms: _291  and  _292
REMARK  103  A    between atoms: _295  and  _297
REMARK  104  A    between atoms: _297  and  _298
REMARK  105  A    between atoms: _300  and  _302
REMARK  106  A    between atoms: _302  and  _303
REMARK  107  A    between atoms: _302  and  _305
REMARK  108  A    between atoms: _305  and  _306
REMARK  109  A    between atoms: _309  and  _311
REMARK  110  A    between atoms: _311  and  _312
REMARK  111  A    between atoms: _311  and  _314
REMARK  112  A    between atoms: _314  and  _315
REMARK  113  A    between atoms: _318  and  _320
REMARK  114  A    between atoms: _320  and  _321
REMARK  115  A    between atoms: _320  and  _323
REMARK  116  A    between atoms: _323  and  _324
REMARK  117  A    between atoms: _329  and  _330
REMARK  118  A    between atoms: _332  and  _334
REMARK  119  A    between atoms: _334  and  _335
REMARK  120  A    between atoms: _334  and  _337
REMARK  121  A    between atoms: _337  and  _338
REMARK  122  A    between atoms: _338  and  _339
REMARK  123  A    between atoms: _344  and  _346
REMARK  124  A    between atoms: _346  and  _347
REMARK  125  A    between atoms: _349  and  _351
REMARK  126  A    between atoms: _351  and  _352
REMARK  127  A    between atoms: _351  and  _354
REMARK  128  A    between atoms: _354  and  _355
REMARK  129  A    between atoms: _360  and  _362
REMARK  130  A    between atoms: _362  and  _363
REMARK  131  A    between atoms: _362  and  _365
REMARK  132  A    between atoms: _365  and  _366
REMARK  133  A    between atoms: _366  and  _367
REMARK  134  A    between atoms: _367  and  _368
REMARK  135  A    between atoms: _368  and  ZN_631
REMARK  136  A    between atoms: _370  and  _372
REMARK  137  A    between atoms: _372  and  _373
REMARK  138  A    between atoms: _372  and  _375
REMARK  139  A    between atoms: _375  and  _376
REMARK  140  A    between atoms: _378  and  _380
REMARK  141  A    between atoms: _380  and  _381
REMARK  142  A    between atoms: _380  and  _383
REMARK  143  A    between atoms: _383  and  _384
REMARK  144  A    between atoms: _387  and  _389
REMARK  145  A    between atoms: _389  and  _390
REMARK  146  A    between atoms: _392  and  _394
REMARK  147  A    between atoms: _394  and  _395
REMARK  148  A    between atoms: _394  and  _397
REMARK  149  A    between atoms: _397  and  _398
REMARK  150  A    between atoms: _401  and  _403
REMARK  151  A    between atoms: _403  and  _404
REMARK  152  A    between atoms: _406  and  _408
REMARK  153  A    between atoms: _408  and  _409
REMARK  154  A    between atoms: _408  and  _411
REMARK  155  A    between atoms: _411  and  _412
REMARK  156  A    between atoms: _412  and  _413
REMARK  157  A    between atoms: _416  and  _418
REMARK  158  A    between atoms: _418  and  _419
REMARK  159  A    between atoms: _418  and  _421
REMARK  160  A    between atoms: _424  and  _426
REMARK  161  A    between atoms: _426  and  _427
REMARK  162  A    between atoms: _426  and  _429
REMARK  163  A    between atoms: _429  and  _430
REMARK  164  A    between atoms: _435  and  _436
REMARK  165  A    between atoms: _438  and  _440
REMARK  166  A    between atoms: _440  and  _441
REMARK  167  A    between atoms: _440  and  _443
REMARK  168  A    between atoms: _443  and  _444
REMARK  169  A    between atoms: _447  and  _449
REMARK  170  A    between atoms: _449  and  _450
REMARK  171  A    between atoms: _449  and  _452
REMARK  172  A    between atoms: _452  and  _453
REMARK  173  A    between atoms: _453  and  _454
REMARK  174  A    between atoms: _454  and  _455
REMARK  175  A    between atoms: _464  and  _466
REMARK  176  A    between atoms: _466  and  _467
REMARK  177  A    between atoms: _466  and  _469
REMARK  178  A    between atoms: _469  and  _470
REMARK  179  A    between atoms: _473  and  _475
REMARK  180  A    between atoms: _475  and  _476
REMARK  181  A    between atoms: _475  and  _478
REMARK  182  A    between atoms: _478  and  _479
REMARK  183  A    between atoms: _484  and  _486
REMARK  184  A    between atoms: _486  and  _487
REMARK  185  A    between atoms: _486  and  _489
REMARK  186  A    between atoms: _492  and  _494
REMARK  187  A    between atoms: _494  and  _495
REMARK  188  A    between atoms: _494  and  _497
REMARK  189  A    between atoms: _497  and  _498
REMARK  190  A    between atoms: _503  and  _505
REMARK  191  A    between atoms: _505  and  _506
REMARK  192  A    between atoms: _505  and  _508
REMARK  193  A    between atoms: _508  and  _509
REMARK  194  A    between atoms: _512  and  _514
REMARK  195  A    between atoms: _514  and  _515
REMARK  196  A    between atoms: _514  and  _517
REMARK  197  A    between atoms: _517  and  _518
REMARK  198  A    between atoms: _520  and  _522
REMARK  199  A    between atoms: _522  and  _523
REMARK  200  A    between atoms: _522  and  _525
REMARK  201  A    between atoms: _525  and  _526
REMARK  202  A    between atoms: _526  and  _527
REMARK  203  A    between atoms: _527  and  _528
REMARK  204  A    between atoms: _537  and  _539
REMARK  205  A    between atoms: _539  and  _540
REMARK  206  A    between atoms: _539  and  _542
REMARK  207  A    between atoms: _542  and  _543
REMARK  208  A    between atoms: _546  and  _548
REMARK  209  A    between atoms: _548  and  _549
REMARK  210  A    between atoms: _548  and  _551
REMARK  211  A    between atoms: _551  and  _552
REMARK  212  A    between atoms: _555  and  _557
REMARK  213  A    between atoms: _557  and  _558
REMARK  214  A    between atoms: _557  and  _560
REMARK  215  A    between atoms: _560  and  _561
REMARK  216  A    between atoms: _564  and  _566
REMARK  217  A    between atoms: _566  and  _567
REMARK  218  A    between atoms: _566  and  _569
REMARK  219  A    between atoms: _569  and  _570
REMARK  220  A    between atoms: _575  and  _576
REMARK  221  A    between atoms: _578  and  _580
REMARK  222  A    between atoms: _580  and  _581
REMARK  223  A    between atoms: _580  and  _583
REMARK  224  A    between atoms: _583  and  _584
REMARK  225  A    between atoms: _586  and  _588
REMARK  226  A    between atoms: _588  and  _589
REMARK  227  A    between atoms: _588  and  _591
REMARK  228  A    between atoms: _591  and  _592
REMARK  229  A    between atoms: _597  and  _598
REMARK  230  A    between atoms: _600  and  _602
REMARK  231  A    between atoms: _602  and  _603
REMARK  232  A    between atoms: _602  and  _605
REMARK  233  A    between atoms: _605  and  _606
REMARK  234  A    between atoms: _612  and  _614
REMARK  235  A    between atoms: _614  and  _615
REMARK  236  A    between atoms: _614  and  _617
REMARK  237  A    between atoms: _620  and  _622
REMARK  238  A    between atoms: _622  and  _623
REMARK  239  A    between atoms: _622  and  _625
REMARK  240  A    between atoms: _625  and  _626
REMARK                            x       y       z     vdW  Elec       q    Type
REMARK                         _______ _______ _______ _____ _____    ______ ____
ROOT
ATOM      1  O   HOH     1      50.488  13.036  -7.647  0.00  0.00    +0.000 OA
ENDROOT
TORSDOF 0
REMARK  Name = ../refined-set-2016/4tmn/4tmn_pocket.pdb
REMARK  240 active torsions:
REMARK  status: ('A' for Active; 'I' for Inactive)
REMARK    1  A    between atoms: _1  and  _3
REMARK    2  A    between atoms: _3  and  _4
REMARK    3  A    between atoms: _3  and  _6
REMARK    4  A    between atoms: _6  and  _7
REMARK    5  A    between atoms: _12  and  _13
REMARK    6  A    between atoms: _15  and  _17
REMARK    7  A    between atoms: _17  and  _18
REMARK    8  A    between atoms: _17  and  _20
REMARK    9  A    between atoms: _20  and  _21
REMARK   10  A    between atoms: _26  and  _27
REMARK   11  A    between atoms: _29  and  _31
REMARK   12  A    between atoms: _31  and  _32
REMARK   13  A    between atoms: _31  and  _34
REMARK   14  A    between atoms: _34  and  _35
REMARK   15  A    between atoms: _40  and  _42
REMARK   16  A    between atoms: _42  and  _43
REMARK   17  A    between atoms: _42  and  _45
REMARK   18  A    between atoms: _45  and  _46
REMARK   19  A    between atoms: _51  and  _53
REMARK   20  A    between atoms: _53  and  _54
REMARK   21  A    between atoms: _57  and  _59
REMARK   22  A    between atoms: _59  and  _60
REMARK   23  A    between atoms: _59  and  _62
REMARK   24  A    between atoms: _62  and  _63
REMARK   25  A    between atoms: _69  and  _71
REMARK   26  A    between atoms: _71  and  _72
REMARK   27  A    between atoms: _71  and  _74
REMARK   28  A    between atoms: _74  and  _75
REMARK   29  A    between atoms: _85  and  _87
REMARK   30  A    between atoms: _87  and  _88
REMARK   31  A    between atoms: _87  and  _90
REMARK   32  A    between atoms: _90  and  _91
REMARK   33  A    between atoms: _96  and  _98
REMARK   34  A    between atoms: _98  and  _99
REMARK   35  A    between atoms: _103  and  _104
REMARK   36  A    between atoms: _103  and  _106
REMARK   37  A    between atoms: _106  and  _107
REMARK   38  A    between atoms: _109  and  _111
REMARK   39  A    between atoms: _111  and  _112
REMARK   40  A    between atoms: _111  and  _114
REMARK   41  A    between atoms: _114  and  _115
REMARK   42  A    between atoms: _115  and  _116
REMARK   43  A    between atoms: _119  and  _121
REMARK   44  A    between atoms: _121  and  _122
REMARK   45  A    between atoms: _121  and  _124
REMARK   46  A    between atoms: _124  and  _125
REMARK   47  A    between atoms: _125  and  _126
REMARK   48  A    between atoms: _128  and  _130
REMARK   49  A    between atoms: _130  and  _131
REMARK   50  A    between atoms: _130  and  _133
REMARK   51  A    between atoms: _136  and  _138
REMARK   52  A    between atoms: _138  and  _139
REMARK   53  A    between atoms: _138  and  _141
REMARK   54  A    between atoms: _141  and  _142
REMARK   55  A    between atoms: _147  and  _148
REMARK   56  A    between atoms: _150  and  _152
REMARK   57  A    between atoms: _152  and  _153
REMARK   58  A    between atoms: _155  and  _157
REMARK   59  A    between atoms: _157  and  _158
REMARK   60  A    between atoms: _157  and  _160
REMARK   61  A    between atoms: _160  and  _161
REMARK   62  A    between atoms: _164  and  _166
REMARK   63  A    between atoms: _166  and  _167
REMARK   64  A    between atoms: _166  and  _169
REMARK   65  A    between atoms: _169  and  _170
REMARK   66  A    between atoms: _176  and  _178
REMARK   67  A    between atoms: _178  and  _179
REMARK   68  A    between atoms: _178  and  _181
REMARK   69  A    between atoms: _181  and  _182
REMARK   70  A    between atoms: _185  and  _187
REMARK   71  A    between atoms: _187  and  _188
REMARK   72  A    between atoms: _190  and  _192
REMARK   73  A    between atoms: _192  and  _193
REMARK   74  A    between atoms: _192  and  _195
REMARK   75  A    between atoms: _195  and  _196
REMARK   76  A    between atoms: _199  and  _201
REMARK   77  A    between atoms: _201  and  _202
REMARK   78  A    between atoms: _201  and  _204
REMARK   79  A    between atoms: _207  and  _209
REMARK   80  A    between atoms: _209  and  _210
REMARK   81  A    between atoms: _209  and  _212
REMARK   82  A    between atoms: _215  and  _217
REMARK   83  A    between atoms: _217  and  _218
REMARK   84  A    between atoms: _221  and  _223
REMARK   85  A    between atoms: _234  and  _237
REMARK   86  A    between atoms: _237  and  _238
REMARK   87  A    between atoms: _238  and  _239
REMARK   88  A    between atoms: _244  and  _247
REMARK   89  A    between atoms: _247  and  _248
REMARK   90  A    between atoms: _253  and  _256
REMARK   91  A    between atoms: _256  and  _257
REMARK   92  A    between atoms: _262  and  _263
REMARK   93  A    between atoms: _271  and  _273
REMARK   94  A    between atoms: _273  and  _274
REMARK   95  A    between atoms: _277  and  _279
REMARK   96  A    between atoms: _279  and  _280
REMARK   97  A    between atoms: _279  and  _282
REMARK   98  A    between atoms: _282  and  _283
REMARK   99  A    between atoms: _286  and  _288
REMARK  100  A    between atoms: _288  and  _289
REMARK  101  A    between atoms: _288  and  _291
REMARK  102  A    between atoms: _291  and  _292
REMARK  103  A    between atoms: _295  and  _297
REMARK  104  A    between atoms: _297  and  _298
REMARK  105  A    between atoms: _300  and  _302
REMARK  106  A    between atoms: _302  and  _303
REMARK  107  A    between atoms: _302  and  _305
REMARK  108  A    between atoms: _305  and  _306
REMARK  109  A    between atoms: _309  and  _311
REMARK  110  A    between atoms: _311  and  _312
REMARK  111  A    between atoms: _311  and  _314
REMARK  112  A    between atoms: _314  and  _315
REMARK  113  A    between atoms: _318  and  _320
REMARK  114  A    between atoms: _320  and  _321
REMARK  115  A    between atoms: _320  and  _323
REMARK  116  A    between atoms: _323  and  _324
REMARK  117  A    between atoms: _329  and  _330
REMARK  118  A    between atoms: _332  and  _334
REMARK  119  A    between atoms: _334  and  _335
REMARK  120  A    between atoms: _334  and  _337
REMARK  121  A    between atoms: _337  and  _338
REMARK  122  A    between atoms: _338  and  _339
REMARK  123  A    between atoms: _344  and  _346
REMARK  124  A    between atoms: _346  and  _347
REMARK  125  A    between atoms: _349  and  _351
REMARK  126  A    between atoms: _351  and  _352
REMARK  127  A    between atoms: _351  and  _354
REMARK  128  A    between atoms: _354  and  _355
REMARK  129  A    between atoms: _360  and  _362
REMARK  130  A    between atoms: _362  and  _363
REMARK  131  A    between atoms: _362  and  _365
REMARK  132  A    between atoms: _365  and  _366
REMARK  133  A    between atoms: _366  and  _367
REMARK  134  A    between atoms: _367  and  _368
REMARK  135  A    between atoms: _368  and  ZN_631
REMARK  136  A    between atoms: _370  and  _372
REMARK  137  A    between atoms: _372  and  _373
REMARK  138  A    between atoms: _372  and  _375
REMARK  139  A    between atoms: _375  and  _376
REMARK  140  A    between atoms: _378  and  _380
REMARK  141  A    between atoms: _380  and  _381
REMARK  142  A    between atoms: _380  and  _383
REMARK  143  A    between atoms: _383  and  _384
REMARK  144  A    between atoms: _387  and  _389
REMARK  145  A    between atoms: _389  and  _390
REMARK  146  A    between atoms: _392  and  _394
REMARK  147  A    between atoms: _394  and  _395
REMARK  148  A    between atoms: _394  and  _397
REMARK  149  A    between atoms: _397  and  _398
REMARK  150  A    between atoms: _401  and  _403
REMARK  151  A    between atoms: _403  and  _404
REMARK  152  A    between atoms: _406  and  _408
REMARK  153  A    between atoms: _408  and  _409
REMARK  154  A    between atoms: _408  and  _411
REMARK  155  A    between atoms: _411  and  _412
REMARK  156  A    between atoms: _412  and  _413
REMARK  157  A    between atoms: _416  and  _418
REMARK  158  A    between atoms: _418  and  _419
REMARK  159  A    between atoms: _418  and  _421
REMARK  160  A    between atoms: _424  and  _426
REMARK  161  A    between atoms: _426  and  _427
REMARK  162  A    between atoms: _426  and  _429
REMARK  163  A    between atoms: _429  and  _430
REMARK  164  A    between atoms: _435  and  _436
REMARK  165  A    between atoms: _438  and  _440
REMARK  166  A    between atoms: _440  and  _441
REMARK  167  A    between atoms: _440  and  _443
REMARK  168  A    between atoms: _443  and  _444
REMARK  169  A    between atoms: _447  and  _449
REMARK  170  A    between atoms: _449  and  _450
REMARK  171  A    between atoms: _449  and  _452
REMARK  172  A    between atoms: _452  and  _453
REMARK  173  A    between atoms: _453  and  _454
REMARK  174  A    between atoms: _454  and  _455
REMARK  175  A    between atoms: _464  and  _466
REMARK  176  A    between atoms: _466  and  _467
REMARK  177  A    between atoms: _466  and  _469
REMARK  178  A    between atoms: _469  and  _470
REMARK  179  A    between atoms: _473  and  _475
REMARK  180  A    between atoms: _475  and  _476
REMARK  181  A    between atoms: _475  and  _478
REMARK  182  A    between atoms: _478  and  _479
REMARK  183  A    between atoms: _484  and  _486
REMARK  184  A    between atoms: _486  and  _487
REMARK  185  A    between atoms: _486  and  _489
REMARK  186  A    between atoms: _492  and  _494
REMARK  187  A    between atoms: _494  and  _495
REMARK  188  A    between atoms: _494  and  _497
REMARK  189  A    between atoms: _497  and  _498
REMARK  190  A    between atoms: _503  and  _505
REMARK  191  A    between atoms: _505  and  _506
REMARK  192  A    between atoms: _505  and  _508
REMARK  193  A    between atoms: _508  and  _509
REMARK  194  A    between atoms: _512  and  _514
REMARK  195  A    between atoms: _514  and  _515
REMARK  196  A    between atoms: _514  and  _517
REMARK  197  A    between atoms: _517  and  _518
REMARK  198  A    between atoms: _520  and  _522
REMARK  199  A    between atoms: _522  and  _523
REMARK  200  A    between atoms: _522  and  _525
REMARK  201  A    between atoms: _525  and  _526
REMARK  202  A    between atoms: _526  and  _527
REMARK  203  A    between atoms: _527  and  _528
REMARK  204  A    between atoms: _537  and  _539
REMARK  205  A    between atoms: _539  and  _540
REMARK  206  A    between atoms: _539  and  _542
REMARK  207  A    between atoms: _542  and  _543
REMARK  208  A    between atoms: _546  and  _548
REMARK  209  A    between atoms: _548  and  _549
REMARK  210  A    between atoms: _548  and  _551
REMARK  211  A    between atoms: _551  and  _552
REMARK  212  A    between atoms: _555  and  _557
REMARK  213  A    between atoms: _557  and  _558
REMARK  214  A    between atoms: _557  and  _560
REMARK  215  A    between atoms: _560  and  _561
REMARK  216  A    between atoms: _564  and  _566
REMARK  217  A    between atoms: _566  and  _567
REMARK  218  A    between atoms: _566  and  _569
REMARK  219  A    between atoms: _569  and  _570
REMARK  220  A    between atoms: _575  and  _576
REMARK  221  A    between atoms: _578  and  _580
REMARK  222  A    between atoms: _580  and  _581
REMARK  223  A    between atoms: _580  and  _583
REMARK  224  A    between atoms: _583  and  _584
REMARK  225  A    between atoms: _586  and  _588
REMARK  226  A    between atoms: _588  and  _589
REMARK  227  A    between atoms: _588  and  _591
REMARK  228  A    between atoms: _591  and  _592
REMARK  229  A    between atoms: _597  and  _598
REMARK  230  A    between atoms: _600  and  _602
REMARK  231  A    between atoms: _602  and  _603
REMARK  232  A    between atoms: _602  and  _605
REMARK  233  A    between atoms: _605  and  _606
REMARK  234  A    between atoms: _612  and  _614
REMARK  235  A    between atoms: _614  and  _615
REMARK  236  A    between atoms: _614  and  _617
REMARK  237  A    between atoms: _620  and  _622
REMARK  238  A    between atoms: _622  and  _623
REMARK  239  A    between atoms: _622  and  _625
REMARK  240  A    between atoms: _625  and  _626
REMARK                            x       y       z     vdW  Elec       q    Type
REMARK                         _______ _______ _______ _____ _____    ______ ____
ROOT
ATOM      1  O   HOH     1      51.156  27.675 -18.452  0.00  0.00    +0.000 OA
ENDROOT
TORSDOF 0
REMARK  Name = ../refined-set-2016/4tmn/4tmn_pocket.pdb
REMARK  240 active torsions:
REMARK  status: ('A' for Active; 'I' for Inactive)
REMARK    1  A    between atoms: _1  and  _3
REMARK    2  A    between atoms: _3  and  _4
REMARK    3  A    between atoms: _3  and  _6
REMARK    4  A    between atoms: _6  and  _7
REMARK    5  A    between atoms: _12  and  _13
REMARK    6  A    between atoms: _15  and  _17
REMARK    7  A    between atoms: _17  and  _18
REMARK    8  A    between atoms: _17  and  _20
REMARK    9  A    between atoms: _20  and  _21
REMARK   10  A    between atoms: _26  and  _27
REMARK   11  A    between atoms: _29  and  _31
REMARK   12  A    between atoms: _31  and  _32
REMARK   13  A    between atoms: _31  and  _34
REMARK   14  A    between atoms: _34  and  _35
REMARK   15  A    between atoms: _40  and  _42
REMARK   16  A    between atoms: _42  and  _43
REMARK   17  A    between atoms: _42  and  _45
REMARK   18  A    between atoms: _45  and  _46
REMARK   19  A    between atoms: _51  and  _53
REMARK   20  A    between atoms: _53  and  _54
REMARK   21  A    between atoms: _57  and  _59
REMARK   22  A    between atoms: _59  and  _60
REMARK   23  A    between atoms: _59  and  _62
REMARK   24  A    between atoms: _62  and  _63
REMARK   25  A    between atoms: _69  and  _71
REMARK   26  A    between atoms: _71  and  _72
REMARK   27  A    between atoms: _71  and  _74
REMARK   28  A    between atoms: _74  and  _75
REMARK   29  A    between atoms: _85  and  _87
REMARK   30  A    between atoms: _87  and  _88
REMARK   31  A    between atoms: _87  and  _90
REMARK   32  A    between atoms: _90  and  _91
REMARK   33  A    between atoms: _96  and  _98
REMARK   34  A    between atoms: _98  and  _99
REMARK   35  A    between atoms: _103  and  _104
REMARK   36  A    between atoms: _103  and  _106
REMARK   37  A    between atoms: _106  and  _107
REMARK   38  A    between atoms: _109  and  _111
REMARK   39  A    between atoms: _111  and  _112
REMARK   40  A    between atoms: _111  and  _114
REMARK   41  A    between atoms: _114  and  _115
REMARK   42  A    between atoms: _115  and  _116
REMARK   43  A    between atoms: _119  and  _121
REMARK   44  A    between atoms: _121  and  _122
REMARK   45  A    between atoms: _121  and  _124
REMARK   46  A    between atoms: _124  and  _125
REMARK   47  A    between atoms: _125  and  _126
REMARK   48  A    between atoms: _128  and  _130
REMARK   49  A    between atoms: _130  and  _131
REMARK   50  A    between atoms: _130  and  _133
REMARK   51  A    between atoms: _136  and  _138
REMARK   52  A    between atoms: _138  and  _139
REMARK   53  A    between atoms: _138  and  _141
REMARK   54  A    between atoms: _141  and  _142
REMARK   55  A    between atoms: _147  and  _148
REMARK   56  A    between atoms: _150  and  _152
REMARK   57  A    between atoms: _152  and  _153
REMARK   58  A    between atoms: _155  and  _157
REMARK   59  A    between atoms: _157  and  _158
REMARK   60  A    between atoms: _157  and  _160
REMARK   61  A    between atoms: _160  and  _161
REMARK   62  A    between atoms: _164  and  _166
REMARK   63  A    between atoms: _166  and  _167
REMARK   64  A    between atoms: _166  and  _169
REMARK   65  A    between atoms: _169  and  _170
REMARK   66  A    between atoms: _176  and  _178
REMARK   67  A    between atoms: _178  and  _179
REMARK   68  A    between atoms: _178  and  _181
REMARK   69  A    between atoms: _181  and  _182
REMARK   70  A    between atoms: _185  and  _187
REMARK   71  A    between atoms: _187  and  _188
REMARK   72  A    between atoms: _190  and  _192
REMARK   73  A    between atoms: _192  and  _193
REMARK   74  A    between atoms: _192  and  _195
REMARK   75  A    between atoms: _195  and  _196
REMARK   76  A    between atoms: _199  and  _201
REMARK   77  A    between atoms: _201  and  _202
REMARK   78  A    between atoms: _201  and  _204
REMARK   79  A    between atoms: _207  and  _209
REMARK   80  A    between atoms: _209  and  _210
REMARK   81  A    between atoms: _209  and  _212
REMARK   82  A    between atoms: _215  and  _217
REMARK   83  A    between atoms: _217  and  _218
REMARK   84  A    between atoms: _221  and  _223
REMARK   85  A    between atoms: _234  and  _237
REMARK   86  A    between atoms: _237  and  _238
REMARK   87  A    between atoms: _238  and  _239
REMARK   88  A    between atoms: _244  and  _247
REMARK   89  A    between atoms: _247  and  _248
REMARK   90  A    between atoms: _253  and  _256
REMARK   91  A    between atoms: _256  and  _257
REMARK   92  A    between atoms: _262  and  _263
REMARK   93  A    between atoms: _271  and  _273
REMARK   94  A    between atoms: _273  and  _274
REMARK   95  A    between atoms: _277  and  _279
REMARK   96  A    between atoms: _279  and  _280
REMARK   97  A    between atoms: _279  and  _282
REMARK   98  A    between atoms: _282  and  _283
REMARK   99  A    between atoms: _286  and  _288
REMARK  100  A    between atoms: _288  and  _289
REMARK  101  A    between atoms: _288  and  _291
REMARK  102  A    between atoms: _291  and  _292
REMARK  103  A    between atoms: _295  and  _297
REMARK  104  A    between atoms: _297  and  _298
REMARK  105  A    between atoms: _300  and  _302
REMARK  106  A    between atoms: _302  and  _303
REMARK  107  A    between atoms: _302  and  _305
REMARK  108  A    between atoms: _305  and  _306
REMARK  109  A    between atoms: _309  and  _311
REMARK  110  A    between atoms: _311  and  _312
REMARK  111  A    between atoms: _311  and  _314
REMARK  112  A    between atoms: _314  and  _315
REMARK  113  A    between atoms: _318  and  _320
REMARK  114  A    between atoms: _320  and  _321
REMARK  115  A    between atoms: _320  and  _323
REMARK  116  A    between atoms: _323  and  _324
REMARK  117  A    between atoms: _329  and  _330
REMARK  118  A    between atoms: _332  and  _334
REMARK  119  A    between atoms: _334  and  _335
REMARK  120  A    between atoms: _334  and  _337
REMARK  121  A    between atoms: _337  and  _338
REMARK  122  A    between atoms: _338  and  _339
REMARK  123  A    between atoms: _344  and  _346
REMARK  124  A    between atoms: _346  and  _347
REMARK  125  A    between atoms: _349  and  _351
REMARK  126  A    between atoms: _351  and  _352
REMARK  127  A    between atoms: _351  and  _354
REMARK  128  A    between atoms: _354  and  _355
REMARK  129  A    between atoms: _360  and  _362
REMARK  130  A    between atoms: _362  and  _363
REMARK  131  A    between atoms: _362  and  _365
REMARK  132  A    between atoms: _365  and  _366
REMARK  133  A    between atoms: _366  and  _367
REMARK  134  A    between atoms: _367  and  _368
REMARK  135  A    between atoms: _368  and  ZN_631
REMARK  136  A    between atoms: _370  and  _372
REMARK  137  A    between atoms: _372  and  _373
REMARK  138  A    between atoms: _372  and  _375
REMARK  139  A    between atoms: _375  and  _376
REMARK  140  A    between atoms: _378  and  _380
REMARK  141  A    between atoms: _380  and  _381
REMARK  142  A    between atoms: _380  and  _383
REMARK  143  A    between atoms: _383  and  _384
REMARK  144  A    between atoms: _387  and  _389
REMARK  145  A    between atoms: _389  and  _390
REMARK  146  A    between atoms: _392  and  _394
REMARK  147  A    between atoms: _394  and  _395
REMARK  148  A    between atoms: _394  and  _397
REMARK  149  A    between atoms: _397  and  _398
REMARK  150  A    between atoms: _401  and  _403
REMARK  151  A    between atoms: _403  and  _404
REMARK  152  A    between atoms: _406  and  _408
REMARK  153  A    between atoms: _408  and  _409
REMARK  154  A    between atoms: _408  and  _411
REMARK  155  A    between atoms: _411  and  _412
REMARK  156  A    between atoms: _412  and  _413
REMARK  157  A    between atoms: _416  and  _418
REMARK  158  A    between atoms: _418  and  _419
REMARK  159  A    between atoms: _418  and  _421
REMARK  160  A    between atoms: _424  and  _426
REMARK  161  A    between atoms: _426  and  _427
REMARK  162  A    between atoms: _426  and  _429
REMARK  163  A    between atoms: _429  and  _430
REMARK  164  A    between atoms: _435  and  _436
REMARK  165  A    between atoms: _438  and  _440
REMARK  166  A    between atoms: _440  and  _441
REMARK  167  A    between atoms: _440  and  _443
REMARK  168  A    between atoms: _443  and  _444
REMARK  169  A    between atoms: _447  and  _449
REMARK  170  A    between atoms: _449  and  _450
REMARK  171  A    between atoms: _449  and  _452
REMARK  172  A    between atoms: _452  and  _453
REMARK  173  A    between atoms: _453  and  _454
REMARK  174  A    between atoms: _454  and  _455
REMARK  175  A    between atoms: _464  and  _466
REMARK  176  A    between atoms: _466  and  _467
REMARK  177  A    between atoms: _466  and  _469
REMARK  178  A    between atoms: _469  and  _470
REMARK  179  A    between atoms: _473  and  _475
REMARK  180  A    between atoms: _475  and  _476
REMARK  181  A    between atoms: _475  and  _478
REMARK  182  A    between atoms: _478  and  _479
REMARK  183  A    between atoms: _484  and  _486
REMARK  184  A    between atoms: _486  and  _487
REMARK  185  A    between atoms: _486  and  _489
REMARK  186  A    between atoms: _492  and  _494
REMARK  187  A    between atoms: _494  and  _495
REMARK  188  A    between atoms: _494  and  _497
REMARK  189  A    between atoms: _497  and  _498
REMARK  190  A    between atoms: _503  and  _505
REMARK  191  A    between atoms: _505  and  _506
REMARK  192  A    between atoms: _505  and  _508
REMARK  193  A    between atoms: _508  and  _509
REMARK  194  A    between atoms: _512  and  _514
REMARK  195  A    between atoms: _514  and  _515
REMARK  196  A    between atoms: _514  and  _517
REMARK  197  A    between atoms: _517  and  _518
REMARK  198  A    between atoms: _520  and  _522
REMARK  199  A    between atoms: _522  and  _523
REMARK  200  A    between atoms: _522  and  _525
REMARK  201  A    between atoms: _525  and  _526
REMARK  202  A    between atoms: _526  and  _527
REMARK  203  A    between atoms: _527  and  _528
REMARK  204  A    between atoms: _537  and  _539
REMARK  205  A    between atoms: _539  and  _540
REMARK  206  A    between atoms: _539  and  _542
REMARK  207  A    between atoms: _542  and  _543
REMARK  208  A    between atoms: _546  and  _548
REMARK  209  A    between atoms: _548  and  _549
REMARK  210  A    between atoms: _548  and  _551
REMARK  211  A    between atoms: _551  and  _552
REMARK  212  A    between atoms: _555  and  _557
REMARK  213  A    between atoms: _557  and  _558
REMARK  214  A    between atoms: _557  and  _560
REMARK  215  A    between atoms: _560  and  _561
REMARK  216  A    between atoms: _564  and  _566
REMARK  217  A    between atoms: _566  and  _567
REMARK  218  A    between atoms: _566  and  _569
REMARK  219  A    between atoms: _569  and  _570
REMARK  220  A    between atoms: _575  and  _576
REMARK  221  A    between atoms: _578  and  _580
REMARK  222  A    between atoms: _580  and  _581
REMARK  223  A    between atoms: _580  and  _583
REMARK  224  A    between atoms: _583  and  _584
REMARK  225  A    between atoms: _586  and  _588
REMARK  226  A    between atoms: _588  and  _589
REMARK  227  A    between atoms: _588  and  _591
REMARK  228  A    between atoms: _591  and  _592
REMARK  229  A    between atoms: _597  and  _598
REMARK  230  A    between atoms: _600  and  _602
REMARK  231  A    between atoms: _602  and  _603
REMARK  232  A    between atoms: _602  and  _605
REMARK  233  A    between atoms: _605  and  _606
REMARK  234  A    between atoms: _612  and  _614
REMARK  235  A    between atoms: _614  and  _615
REMARK  236  A    between atoms: _614  and  _617
REMARK  237  A    between atoms: _620  and  _622
REMARK  238  A    between atoms: _622  and  _623
REMARK  239  A    between atoms: _622  and  _625
REMARK  240  A    between atoms: _625  and  _626
REMARK                            x       y       z     vdW  Elec       q    Type
REMARK                         _______ _______ _______ _____ _____    ______ ____
ROOT
ATOM      1  O   HOH     1      42.112  17.945 -10.034  0.00  0.00    +0.000 OA
ENDROOT
TORSDOF 0
