REMARK  Name = ../refined-set-2016/2xbw/2xbw_pocket.pdb
REMARK  229 active torsions:
REMARK  status: ('A' for Active; 'I' for Inactive)
REMARK    1  A    between atoms: _1  and  _5
REMARK    2  A    between atoms: _5  and  _6
REMARK    3  A    between atoms: _5  and  _8
REMARK    4  A    between atoms: _8  and  _9
REMARK    5  A    between atoms: _12  and  _14
REMARK    6  A    between atoms: _14  and  _15
REMARK    7  A    between atoms: _14  and  _17
REMARK    8  A    between atoms: _20  and  _22
REMARK    9  A    between atoms: _22  and  _23
REMARK   10  A    between atoms: _22  and  _25
REMARK   11  A    between atoms: _25  and  _26
REMARK   12  A    between atoms: _31  and  _33
REMARK   13  A    between atoms: _33  and  _34
REMARK   14  A    between atoms: _33  and  _36
REMARK   15  A    between atoms: _36  and  _37
REMARK   16  A    between atoms: _37  and  _38
REMARK   17  A    between atoms: _43  and  _45
REMARK   18  A    between atoms: _45  and  _46
REMARK   19  A    between atoms: _45  and  _48
REMARK   20  A    between atoms: _48  and  _49
REMARK   21  A    between atoms: _55  and  _57
REMARK   22  A    between atoms: _57  and  _58
REMARK   23  A    between atoms: _57  and  _60
REMARK   24  A    between atoms: _60  and  _61
REMARK   25  A    between atoms: _64  and  _66
REMARK   26  A    between atoms: _66  and  _67
REMARK   27  A    between atoms: _66  and  _69
REMARK   28  A    between atoms: _69  and  _70
REMARK   29  A    between atoms: _70  and  _71
REMARK   30  A    between atoms: _71  and  _72
REMARK   31  A    between atoms: _72  and  _73
REMARK   32  A    between atoms: _77  and  _79
REMARK   33  A    between atoms: _79  and  _80
REMARK   34  A    between atoms: _79  and  _82
REMARK   35  A    between atoms: _82  and  _83
REMARK   36  A    between atoms: _83  and  _84
REMARK   37  A    between atoms: _87  and  _89
REMARK   38  A    between atoms: _89  and  _90
REMARK   39  A    between atoms: _89  and  _92
REMARK   40  A    between atoms: _92  and  _93
REMARK   41  A    between atoms: _96  and  _98
REMARK   42  A    between atoms: _98  and  _99
REMARK   43  A    between atoms: _98  and  _101
REMARK   44  A    between atoms: _101  and  _102
REMARK   45  A    between atoms: _107  and  _108
REMARK   46  A    between atoms: _110  and  _112
REMARK   47  A    between atoms: _112  and  _113
REMARK   48  A    between atoms: _112  and  _115
REMARK   49  A    between atoms: _115  and  _116
REMARK   50  A    between atoms: _119  and  _121
REMARK   51  A    between atoms: _121  and  _122
REMARK   52  A    between atoms: _121  and  _124
REMARK   53  A    between atoms: _124  and  _125
REMARK   54  A    between atoms: _128  and  _130
REMARK   55  A    between atoms: _130  and  _131
REMARK   56  A    between atoms: _130  and  _133
REMARK   57  A    between atoms: _136  and  _138
REMARK   58  A    between atoms: _138  and  _139
REMARK   59  A    between atoms: _138  and  _141
REMARK   60  A    between atoms: _141  and  _142
REMARK   61  A    between atoms: _142  and  _143
REMARK   62  A    between atoms: _143  and  _144
REMARK   63  A    between atoms: _153  and  _155
REMARK   64  A    between atoms: _155  and  _156
REMARK   65  A    between atoms: _155  and  _158
REMARK   66  A    between atoms: _158  and  _159
REMARK   67  A    between atoms: _162  and  _164
REMARK   68  A    between atoms: _164  and  _165
REMARK   69  A    between atoms: _164  and  _167
REMARK   70  A    between atoms: _167  and  _168
REMARK   71  A    between atoms: _173  and  _175
REMARK   72  A    between atoms: _175  and  _176
REMARK   73  A    between atoms: _175  and  _178
REMARK   74  A    between atoms: _178  and  _179
REMARK   75  A    between atoms: _179  and  _180
REMARK   76  A    between atoms: _183  and  _185
REMARK   77  A    between atoms: _185  and  _186
REMARK   78  A    between atoms: _185  and  _188
REMARK   79  A    between atoms: _188  and  _189
REMARK   80  A    between atoms: _189  and  _190
REMARK   81  A    between atoms: _190  and  _191
REMARK   82  A    between atoms: _191  and  _192
REMARK   83  A    between atoms: _196  and  _198
REMARK   84  A    between atoms: _198  and  _199
REMARK   85  A    between atoms: _201  and  _203
REMARK   86  A    between atoms: _203  and  _204
REMARK   87  A    between atoms: _203  and  _206
REMARK   88  A    between atoms: _209  and  _211
REMARK   89  A    between atoms: _211  and  _212
REMARK   90  A    between atoms: _211  and  _214
REMARK   91  A    between atoms: _214  and  _215
REMARK   92  A    between atoms: _217  and  _219
REMARK   93  A    between atoms: _219  and  _220
REMARK   94  A    between atoms: _219  and  _222
REMARK   95  A    between atoms: _222  and  _223
REMARK   96  A    between atoms: _225  and  _227
REMARK   97  A    between atoms: _227  and  _228
REMARK   98  A    between atoms: _227  and  _230
REMARK   99  A    between atoms: _230  and  _231
REMARK  100  A    between atoms: _237  and  _239
REMARK  101  A    between atoms: _239  and  _240
REMARK  102  A    between atoms: _239  and  _242
REMARK  103  A    between atoms: _242  and  _243
REMARK  104  A    between atoms: _246  and  _248
REMARK  105  A    between atoms: _248  and  _249
REMARK  106  A    between atoms: _248  and  _251
REMARK  107  A    between atoms: _251  and  _252
REMARK  108  A    between atoms: _255  and  _257
REMARK  109  A    between atoms: _257  and  _258
REMARK  110  A    between atoms: _257  and  _260
REMARK  111  A    between atoms: _260  and  _261
REMARK  112  A    between atoms: _264  and  _266
REMARK  113  A    between atoms: _266  and  _267
REMARK  114  A    between atoms: _266  and  _269
REMARK  115  A    between atoms: _269  and  _270
REMARK  116  A    between atoms: _270  and  _271
REMARK  117  A    between atoms: _273  and  _275
REMARK  118  A    between atoms: _275  and  _276
REMARK  119  A    between atoms: _275  and  _278
REMARK  120  A    between atoms: _278  and  _279
REMARK  121  A    between atoms: _285  and  _287
REMARK  122  A    between atoms: _287  and  _288
REMARK  123  A    between atoms: _287  and  _290
REMARK  124  A    between atoms: _292  and  _294
REMARK  125  A    between atoms: _294  and  _295
REMARK  126  A    between atoms: _298  and  _300
REMARK  127  A    between atoms: _300  and  _301
REMARK  128  A    between atoms: _303  and  _305
REMARK  129  A    between atoms: _305  and  _306
REMARK  130  A    between atoms: _305  and  _308
REMARK  131  A    between atoms: _308  and  _309
REMARK  132  A    between atoms: _309  and  _310
REMARK  133  A    between atoms: _313  and  _315
REMARK  134  A    between atoms: _315  and  _316
REMARK  135  A    between atoms: _315  and  _318
REMARK  136  A    between atoms: _318  and  _319
REMARK  137  A    between atoms: _322  and  _324
REMARK  138  A    between atoms: _324  and  _325
REMARK  139  A    between atoms: _328  and  _330
REMARK  140  A    between atoms: _330  and  _331
REMARK  141  A    between atoms: _330  and  _333
REMARK  142  A    between atoms: _333  and  _334
REMARK  143  A    between atoms: _334  and  _457
REMARK  144  A    between atoms: _335  and  _337
REMARK  145  A    between atoms: _337  and  _338
REMARK  146  A    between atoms: _337  and  _340
REMARK  147  A    between atoms: _340  and  _341
REMARK  148  A    between atoms: _341  and  _342
REMARK  149  A    between atoms: _347  and  _349
REMARK  150  A    between atoms: _349  and  _350
REMARK  151  A    between atoms: _352  and  _354
REMARK  152  A    between atoms: _354  and  _355
REMARK  153  A    between atoms: _354  and  _357
REMARK  154  A    between atoms: _357  and  _358
REMARK  155  A    between atoms: _361  and  _363
REMARK  156  A    between atoms: _363  and  _364
REMARK  157  A    between atoms: _363  and  _366
REMARK  158  A    between atoms: _366  and  _367
REMARK  159  A    between atoms: _369  and  _371
REMARK  160  A    between atoms: _371  and  _372
REMARK  161  A    between atoms: _374  and  _376
REMARK  162  A    between atoms: _376  and  _377
REMARK  163  A    between atoms: _379  and  _381
REMARK  164  A    between atoms: _381  and  _382
REMARK  165  A    between atoms: _381  and  _384
REMARK  166  A    between atoms: _384  and  _385
REMARK  167  A    between atoms: _390  and  _392
REMARK  168  A    between atoms: _392  and  _393
REMARK  169  A    between atoms: _392  and  _395
REMARK  170  A    between atoms: _395  and  _396
REMARK  171  A    between atoms: _399  and  _401
REMARK  172  A    between atoms: _401  and  _402
REMARK  173  A    between atoms: _401  and  _404
REMARK  174  A    between atoms: _407  and  _409
REMARK  175  A    between atoms: _409  and  _410
REMARK  176  A    between atoms: _409  and  _412
REMARK  177  A    between atoms: _412  and  _413
REMARK  178  A    between atoms: _415  and  _417
REMARK  179  A    between atoms: _417  and  _418
REMARK  180  A    between atoms: _417  and  _420
REMARK  181  A    between atoms: _420  and  _421
REMARK  182  A    between atoms: _431  and  _433
REMARK  183  A    between atoms: _433  and  _434
REMARK  184  A    between atoms: _436  and  _438
REMARK  185  A    between atoms: _438  and  _439
REMARK  186  A    between atoms: _438  and  _441
REMARK  187  A    between atoms: _441  and  _442
REMARK  188  A    between atoms: _442  and  _443
REMARK  189  A    between atoms: _446  and  _448
REMARK  190  A    between atoms: _448  and  _449
REMARK  191  A    between atoms: _451  and  _453
REMARK  192  A    between atoms: _453  and  _454
REMARK  193  A    between atoms: _453  and  _456
REMARK  194  A    between atoms: _456  and  _457
REMARK  195  A    between atoms: _458  and  _460
REMARK  196  A    between atoms: _460  and  _461
REMARK  197  A    between atoms: _464  and  _466
REMARK  198  A    between atoms: _466  and  _467
REMARK  199  A    between atoms: _466  and  _469
REMARK  200  A    between atoms: _469  and  _470
REMARK  201  A    between atoms: _470  and  _471
REMARK  202  A    between atoms: _471  and  _472
REMARK  203  A    between atoms: _481  and  _483
REMARK  204  A    between atoms: _483  and  _484
REMARK  205  A    between atoms: _483  and  _486
REMARK  206  A    between atoms: _486  and  _487
REMARK  207  A    between atoms: _487  and  _488
REMARK  208  A    between atoms: _488  and  _489
REMARK  209  A    between atoms: _489  and  _490
REMARK  210  A    between atoms: _494  and  _496
REMARK  211  A    between atoms: _496  and  _497
REMARK  212  A    between atoms: _496  and  _499
REMARK  213  A    between atoms: _499  and  _500
REMARK  214  A    between atoms: _505  and  _506
REMARK  215  A    between atoms: _508  and  _510
REMARK  216  A    between atoms: _510  and  _511
REMARK  217  A    between atoms: _513  and  _515
REMARK  218  A    between atoms: _515  and  _516
REMARK  219  A    between atoms: _515  and  _518
REMARK  220  A    between atoms: _518  and  _519
REMARK  221  A    between atoms: _522  and  _524
REMARK  222  A    between atoms: _524  and  _525
REMARK  223  A    between atoms: _524  and  _527
REMARK  224  A    between atoms: _527  and  _528
REMARK  225  A    between atoms: _533  and  _534
REMARK  226  A    between atoms: _536  and  _538
REMARK  227  A    between atoms: _538  and  _539
REMARK  228  A    between atoms: _538  and  _541
REMARK  229  A    between atoms: _541  and  _542
REMARK                            x       y       z     vdW  Elec       q    Type
REMARK                         _______ _______ _______ _____ _____    ______ ____
ROOT
ATOM      1  C   ILE A   1      19.663  72.238   8.006  0.00  0.00    +0.202 C 
ATOM      2  N   VAL A   2      18.906  71.877   9.045  0.00  0.00    -0.301 N 
ATOM      3  H   VAL A   2      18.698  70.869   9.195  0.00  0.00    +0.150 HD
ATOM      4  O   ILE A   1      19.953  73.423   7.754  0.00  0.00    -0.277 OA
ENDROOT
BRANCH   1   5
ATOM      5  CA  ILE A   1      20.200  71.103   7.128  0.00  0.00    +0.013 C 
BRANCH   5   6
ATOM      6  N   ILE A   1      19.880  71.336   5.674  0.00  0.00    +0.387 N 
ATOM      7  H1  ILE A   1      18.849  71.390   5.552  0.00  0.00    -0.089 HD
ATOM      8  H2  ILE A   1      20.314  72.229   5.363  0.00  0.00    -0.089 HD
ATOM      9  H3  ILE A   1      20.257  70.550   5.107  0.00  0.00    -0.089 HD
ENDBRANCH   5   6
BRANCH   5  10
ATOM     10  CB  ILE A   1      21.748  71.021   7.382  0.00  0.00    -0.011 C 
ATOM     11  CG2 ILE A   1      22.016  70.877   8.859  0.00  0.00    -0.002 C 
BRANCH  10  12
ATOM     12  CG1 ILE A   1      22.399  69.906   6.553  0.00  0.00    -0.002 C 
ATOM     13  CD1 ILE A   1      21.997  68.472   6.922  0.00  0.00    -0.000 C 
ENDBRANCH  10  12
ENDBRANCH   5  10
ENDBRANCH   1   5
BRANCH   2  14
ATOM     14  CA  VAL A   2      18.368  72.855   9.968  0.00  0.00    +0.137 C 
BRANCH  14  15
ATOM     15  CB  VAL A   2      16.914  72.499  10.431  0.00  0.00    +0.026 C 
ATOM     16  CG2 VAL A   2      16.370  73.591  11.372  0.00  0.00    +0.002 C 
ATOM     17  CG1 VAL A   2      16.017  72.363   9.237  0.00  0.00    +0.002 C 
ENDBRANCH  14  15
BRANCH  14  18
ATOM     18  C   VAL A   2      19.324  72.824  11.152  0.00  0.00    +0.227 C 
ATOM     19  O   VAL A   2      19.599  71.767  11.721  0.00  0.00    -0.286 OA
ENDBRANCH  14  18
ENDBRANCH   2  14
TORSDOF 7
REMARK  Name = ../refined-set-2016/2xbw/2xbw_pocket.pdb
REMARK  229 active torsions:
REMARK  status: ('A' for Active; 'I' for Inactive)
REMARK    1  A    between atoms: _1  and  _5
REMARK    2  A    between atoms: _5  and  _6
REMARK    3  A    between atoms: _5  and  _8
REMARK    4  A    between atoms: _8  and  _9
REMARK    5  A    between atoms: _12  and  _14
REMARK    6  A    between atoms: _14  and  _15
REMARK    7  A    between atoms: _14  and  _17
REMARK    8  A    between atoms: _20  and  _22
REMARK    9  A    between atoms: _22  and  _23
REMARK   10  A    between atoms: _22  and  _25
REMARK   11  A    between atoms: _25  and  _26
REMARK   12  A    between atoms: _31  and  _33
REMARK   13  A    between atoms: _33  and  _34
REMARK   14  A    between atoms: _33  and  _36
REMARK   15  A    between atoms: _36  and  _37
REMARK   16  A    between atoms: _37  and  _38
REMARK   17  A    between atoms: _43  and  _45
REMARK   18  A    between atoms: _45  and  _46
REMARK   19  A    between atoms: _45  and  _48
REMARK   20  A    between atoms: _48  and  _49
REMARK   21  A    between atoms: _55  and  _57
REMARK   22  A    between atoms: _57  and  _58
REMARK   23  A    between atoms: _57  and  _60
REMARK   24  A    between atoms: _60  and  _61
REMARK   25  A    between atoms: _64  and  _66
REMARK   26  A    between atoms: _66  and  _67
REMARK   27  A    between atoms: _66  and  _69
REMARK   28  A    between atoms: _69  and  _70
REMARK   29  A    between atoms: _70  and  _71
REMARK   30  A    between atoms: _71  and  _72
REMARK   31  A    between atoms: _72  and  _73
REMARK   32  A    between atoms: _77  and  _79
REMARK   33  A    between atoms: _79  and  _80
REMARK   34  A    between atoms: _79  and  _82
REMARK   35  A    between atoms: _82  and  _83
REMARK   36  A    between atoms: _83  and  _84
REMARK   37  A    between atoms: _87  and  _89
REMARK   38  A    between atoms: _89  and  _90
REMARK   39  A    between atoms: _89  and  _92
REMARK   40  A    between atoms: _92  and  _93
REMARK   41  A    between atoms: _96  and  _98
REMARK   42  A    between atoms: _98  and  _99
REMARK   43  A    between atoms: _98  and  _101
REMARK   44  A    between atoms: _101  and  _102
REMARK   45  A    between atoms: _107  and  _108
REMARK   46  A    between atoms: _110  and  _112
REMARK   47  A    between atoms: _112  and  _113
REMARK   48  A    between atoms: _112  and  _115
REMARK   49  A    between atoms: _115  and  _116
REMARK   50  A    between atoms: _119  and  _121
REMARK   51  A    between atoms: _121  and  _122
REMARK   52  A    between atoms: _121  and  _124
REMARK   53  A    between atoms: _124  and  _125
REMARK   54  A    between atoms: _128  and  _130
REMARK   55  A    between atoms: _130  and  _131
REMARK   56  A    between atoms: _130  and  _133
REMARK   57  A    between atoms: _136  and  _138
REMARK   58  A    between atoms: _138  and  _139
REMARK   59  A    between atoms: _138  and  _141
REMARK   60  A    between atoms: _141  and  _142
REMARK   61  A    between atoms: _142  and  _143
REMARK   62  A    between atoms: _143  and  _144
REMARK   63  A    between atoms: _153  and  _155
REMARK   64  A    between atoms: _155  and  _156
REMARK   65  A    between atoms: _155  and  _158
REMARK   66  A    between atoms: _158  and  _159
REMARK   67  A    between atoms: _162  and  _164
REMARK   68  A    between atoms: _164  and  _165
REMARK   69  A    between atoms: _164  and  _167
REMARK   70  A    between atoms: _167  and  _168
REMARK   71  A    between atoms: _173  and  _175
REMARK   72  A    between atoms: _175  and  _176
REMARK   73  A    between atoms: _175  and  _178
REMARK   74  A    between atoms: _178  and  _179
REMARK   75  A    between atoms: _179  and  _180
REMARK   76  A    between atoms: _183  and  _185
REMARK   77  A    between atoms: _185  and  _186
REMARK   78  A    between atoms: _185  and  _188
REMARK   79  A    between atoms: _188  and  _189
REMARK   80  A    between atoms: _189  and  _190
REMARK   81  A    between atoms: _190  and  _191
REMARK   82  A    between atoms: _191  and  _192
REMARK   83  A    between atoms: _196  and  _198
REMARK   84  A    between atoms: _198  and  _199
REMARK   85  A    between atoms: _201  and  _203
REMARK   86  A    between atoms: _203  and  _204
REMARK   87  A    between atoms: _203  and  _206
REMARK   88  A    between atoms: _209  and  _211
REMARK   89  A    between atoms: _211  and  _212
REMARK   90  A    between atoms: _211  and  _214
REMARK   91  A    between atoms: _214  and  _215
REMARK   92  A    between atoms: _217  and  _219
REMARK   93  A    between atoms: _219  and  _220
REMARK   94  A    between atoms: _219  and  _222
REMARK   95  A    between atoms: _222  and  _223
REMARK   96  A    between atoms: _225  and  _227
REMARK   97  A    between atoms: _227  and  _228
REMARK   98  A    between atoms: _227  and  _230
REMARK   99  A    between atoms: _230  and  _231
REMARK  100  A    between atoms: _237  and  _239
REMARK  101  A    between atoms: _239  and  _240
REMARK  102  A    between atoms: _239  and  _242
REMARK  103  A    between atoms: _242  and  _243
REMARK  104  A    between atoms: _246  and  _248
REMARK  105  A    between atoms: _248  and  _249
REMARK  106  A    between atoms: _248  and  _251
REMARK  107  A    between atoms: _251  and  _252
REMARK  108  A    between atoms: _255  and  _257
REMARK  109  A    between atoms: _257  and  _258
REMARK  110  A    between atoms: _257  and  _260
REMARK  111  A    between atoms: _260  and  _261
REMARK  112  A    between atoms: _264  and  _266
REMARK  113  A    between atoms: _266  and  _267
REMARK  114  A    between atoms: _266  and  _269
REMARK  115  A    between atoms: _269  and  _270
REMARK  116  A    between atoms: _270  and  _271
REMARK  117  A    between atoms: _273  and  _275
REMARK  118  A    between atoms: _275  and  _276
REMARK  119  A    between atoms: _275  and  _278
REMARK  120  A    between atoms: _278  and  _279
REMARK  121  A    between atoms: _285  and  _287
REMARK  122  A    between atoms: _287  and  _288
REMARK  123  A    between atoms: _287  and  _290
REMARK  124  A    between atoms: _292  and  _294
REMARK  125  A    between atoms: _294  and  _295
REMARK  126  A    between atoms: _298  and  _300
REMARK  127  A    between atoms: _300  and  _301
REMARK  128  A    between atoms: _303  and  _305
REMARK  129  A    between atoms: _305  and  _306
REMARK  130  A    between atoms: _305  and  _308
REMARK  131  A    between atoms: _308  and  _309
REMARK  132  A    between atoms: _309  and  _310
REMARK  133  A    between atoms: _313  and  _315
REMARK  134  A    between atoms: _315  and  _316
REMARK  135  A    between atoms: _315  and  _318
REMARK  136  A    between atoms: _318  and  _319
REMARK  137  A    between atoms: _322  and  _324
REMARK  138  A    between atoms: _324  and  _325
REMARK  139  A    between atoms: _328  and  _330
REMARK  140  A    between atoms: _330  and  _331
REMARK  141  A    between atoms: _330  and  _333
REMARK  142  A    between atoms: _333  and  _334
REMARK  143  A    between atoms: _334  and  _457
REMARK  144  A    between atoms: _335  and  _337
REMARK  145  A    between atoms: _337  and  _338
REMARK  146  A    between atoms: _337  and  _340
REMARK  147  A    between atoms: _340  and  _341
REMARK  148  A    between atoms: _341  and  _342
REMARK  149  A    between atoms: _347  and  _349
REMARK  150  A    between atoms: _349  and  _350
REMARK  151  A    between atoms: _352  and  _354
REMARK  152  A    between atoms: _354  and  _355
REMARK  153  A    between atoms: _354  and  _357
REMARK  154  A    between atoms: _357  and  _358
REMARK  155  A    between atoms: _361  and  _363
REMARK  156  A    between atoms: _363  and  _364
REMARK  157  A    between atoms: _363  and  _366
REMARK  158  A    between atoms: _366  and  _367
REMARK  159  A    between atoms: _369  and  _371
REMARK  160  A    between atoms: _371  and  _372
REMARK  161  A    between atoms: _374  and  _376
REMARK  162  A    between atoms: _376  and  _377
REMARK  163  A    between atoms: _379  and  _381
REMARK  164  A    between atoms: _381  and  _382
REMARK  165  A    between atoms: _381  and  _384
REMARK  166  A    between atoms: _384  and  _385
REMARK  167  A    between atoms: _390  and  _392
REMARK  168  A    between atoms: _392  and  _393
REMARK  169  A    between atoms: _392  and  _395
REMARK  170  A    between atoms: _395  and  _396
REMARK  171  A    between atoms: _399  and  _401
REMARK  172  A    between atoms: _401  and  _402
REMARK  173  A    between atoms: _401  and  _404
REMARK  174  A    between atoms: _407  and  _409
REMARK  175  A    between atoms: _409  and  _410
REMARK  176  A    between atoms: _409  and  _412
REMARK  177  A    between atoms: _412  and  _413
REMARK  178  A    between atoms: _415  and  _417
REMARK  179  A    between atoms: _417  and  _418
REMARK  180  A    between atoms: _417  and  _420
REMARK  181  A    between atoms: _420  and  _421
REMARK  182  A    between atoms: _431  and  _433
REMARK  183  A    between atoms: _433  and  _434
REMARK  184  A    between atoms: _436  and  _438
REMARK  185  A    between atoms: _438  and  _439
REMARK  186  A    between atoms: _438  and  _441
REMARK  187  A    between atoms: _441  and  _442
REMARK  188  A    between atoms: _442  and  _443
REMARK  189  A    between atoms: _446  and  _448
REMARK  190  A    between atoms: _448  and  _449
REMARK  191  A    between atoms: _451  and  _453
REMARK  192  A    between atoms: _453  and  _454
REMARK  193  A    between atoms: _453  and  _456
REMARK  194  A    between atoms: _456  and  _457
REMARK  195  A    between atoms: _458  and  _460
REMARK  196  A    between atoms: _460  and  _461
REMARK  197  A    between atoms: _464  and  _466
REMARK  198  A    between atoms: _466  and  _467
REMARK  199  A    between atoms: _466  and  _469
REMARK  200  A    between atoms: _469  and  _470
REMARK  201  A    between atoms: _470  and  _471
REMARK  202  A    between atoms: _471  and  _472
REMARK  203  A    between atoms: _481  and  _483
REMARK  204  A    between atoms: _483  and  _484
REMARK  205  A    between atoms: _483  and  _486
REMARK  206  A    between atoms: _486  and  _487
REMARK  207  A    between atoms: _487  and  _488
REMARK  208  A    between atoms: _488  and  _489
REMARK  209  A    between atoms: _489  and  _490
REMARK  210  A    between atoms: _494  and  _496
REMARK  211  A    between atoms: _496  and  _497
REMARK  212  A    between atoms: _496  and  _499
REMARK  213  A    between atoms: _499  and  _500
REMARK  214  A    between atoms: _505  and  _506
REMARK  215  A    between atoms: _508  and  _510
REMARK  216  A    between atoms: _510  and  _511
REMARK  217  A    between atoms: _513  and  _515
REMARK  218  A    between atoms: _515  and  _516
REMARK  219  A    between atoms: _515  and  _518
REMARK  220  A    between atoms: _518  and  _519
REMARK  221  A    between atoms: _522  and  _524
REMARK  222  A    between atoms: _524  and  _525
REMARK  223  A    between atoms: _524  and  _527
REMARK  224  A    between atoms: _527  and  _528
REMARK  225  A    between atoms: _533  and  _534
REMARK  226  A    between atoms: _536  and  _538
REMARK  227  A    between atoms: _538  and  _539
REMARK  228  A    between atoms: _538  and  _541
REMARK  229  A    between atoms: _541  and  _542
REMARK                            x       y       z     vdW  Elec       q    Type
REMARK                         _______ _______ _______ _____ _____    ______ ____
ROOT
ATOM      1  CB  HIS A   1      12.465  59.231  -3.405  0.00  0.00    +0.072 C 
ENDROOT
BRANCH   1   2
ATOM      2  CG  HIS A   1      13.164  60.214  -2.520  0.00  0.00    +0.082 A 
ATOM      3  ND1 HIS A   1      13.958  59.832  -1.457  0.00  0.00    -0.227 NA
ATOM      4  CE1 HIS A   1      14.402  60.912  -0.842  0.00  0.00    +0.199 A 
ATOM      5  NE2 HIS A   1      13.930  61.980  -1.469  0.00  0.00    -0.221 NA
ATOM      6  CD2 HIS A   1      13.155  61.570  -2.521  0.00  0.00    +0.115 A 
ENDBRANCH   1   2
BRANCH   1   7
ATOM      7  CA  HIS A   1      13.218  58.885  -4.695  0.00  0.00    +0.139 C 
BRANCH   7   8
ATOM      8  N   HIS A   1      14.294  57.903  -4.483  0.00  0.00    -0.239 NA
ATOM      9  H   HIS A   1      14.603  57.650  -3.523  0.00  0.00    +0.142 HD
ENDBRANCH   7   8
BRANCH   7  10
ATOM     10  C   HIS A   1      13.707  60.157  -5.372  0.00  0.00    +0.224 C 
ATOM     11  O   HIS A   1      12.932  60.867  -5.987  0.00  0.00    -0.287 OA
ENDBRANCH   7  10
ENDBRANCH   1   7
TORSDOF 4
REMARK  Name = ../refined-set-2016/2xbw/2xbw_pocket.pdb
REMARK  229 active torsions:
REMARK  status: ('A' for Active; 'I' for Inactive)
REMARK    1  A    between atoms: _1  and  _5
REMARK    2  A    between atoms: _5  and  _6
REMARK    3  A    between atoms: _5  and  _8
REMARK    4  A    between atoms: _8  and  _9
REMARK    5  A    between atoms: _12  and  _14
REMARK    6  A    between atoms: _14  and  _15
REMARK    7  A    between atoms: _14  and  _17
REMARK    8  A    between atoms: _20  and  _22
REMARK    9  A    between atoms: _22  and  _23
REMARK   10  A    between atoms: _22  and  _25
REMARK   11  A    between atoms: _25  and  _26
REMARK   12  A    between atoms: _31  and  _33
REMARK   13  A    between atoms: _33  and  _34
REMARK   14  A    between atoms: _33  and  _36
REMARK   15  A    between atoms: _36  and  _37
REMARK   16  A    between atoms: _37  and  _38
REMARK   17  A    between atoms: _43  and  _45
REMARK   18  A    between atoms: _45  and  _46
REMARK   19  A    between atoms: _45  and  _48
REMARK   20  A    between atoms: _48  and  _49
REMARK   21  A    between atoms: _55  and  _57
REMARK   22  A    between atoms: _57  and  _58
REMARK   23  A    between atoms: _57  and  _60
REMARK   24  A    between atoms: _60  and  _61
REMARK   25  A    between atoms: _64  and  _66
REMARK   26  A    between atoms: _66  and  _67
REMARK   27  A    between atoms: _66  and  _69
REMARK   28  A    between atoms: _69  and  _70
REMARK   29  A    between atoms: _70  and  _71
REMARK   30  A    between atoms: _71  and  _72
REMARK   31  A    between atoms: _72  and  _73
REMARK   32  A    between atoms: _77  and  _79
REMARK   33  A    between atoms: _79  and  _80
REMARK   34  A    between atoms: _79  and  _82
REMARK   35  A    between atoms: _82  and  _83
REMARK   36  A    between atoms: _83  and  _84
REMARK   37  A    between atoms: _87  and  _89
REMARK   38  A    between atoms: _89  and  _90
REMARK   39  A    between atoms: _89  and  _92
REMARK   40  A    between atoms: _92  and  _93
REMARK   41  A    between atoms: _96  and  _98
REMARK   42  A    between atoms: _98  and  _99
REMARK   43  A    between atoms: _98  and  _101
REMARK   44  A    between atoms: _101  and  _102
REMARK   45  A    between atoms: _107  and  _108
REMARK   46  A    between atoms: _110  and  _112
REMARK   47  A    between atoms: _112  and  _113
REMARK   48  A    between atoms: _112  and  _115
REMARK   49  A    between atoms: _115  and  _116
REMARK   50  A    between atoms: _119  and  _121
REMARK   51  A    between atoms: _121  and  _122
REMARK   52  A    between atoms: _121  and  _124
REMARK   53  A    between atoms: _124  and  _125
REMARK   54  A    between atoms: _128  and  _130
REMARK   55  A    between atoms: _130  and  _131
REMARK   56  A    between atoms: _130  and  _133
REMARK   57  A    between atoms: _136  and  _138
REMARK   58  A    between atoms: _138  and  _139
REMARK   59  A    between atoms: _138  and  _141
REMARK   60  A    between atoms: _141  and  _142
REMARK   61  A    between atoms: _142  and  _143
REMARK   62  A    between atoms: _143  and  _144
REMARK   63  A    between atoms: _153  and  _155
REMARK   64  A    between atoms: _155  and  _156
REMARK   65  A    between atoms: _155  and  _158
REMARK   66  A    between atoms: _158  and  _159
REMARK   67  A    between atoms: _162  and  _164
REMARK   68  A    between atoms: _164  and  _165
REMARK   69  A    between atoms: _164  and  _167
REMARK   70  A    between atoms: _167  and  _168
REMARK   71  A    between atoms: _173  and  _175
REMARK   72  A    between atoms: _175  and  _176
REMARK   73  A    between atoms: _175  and  _178
REMARK   74  A    between atoms: _178  and  _179
REMARK   75  A    between atoms: _179  and  _180
REMARK   76  A    between atoms: _183  and  _185
REMARK   77  A    between atoms: _185  and  _186
REMARK   78  A    between atoms: _185  and  _188
REMARK   79  A    between atoms: _188  and  _189
REMARK   80  A    between atoms: _189  and  _190
REMARK   81  A    between atoms: _190  and  _191
REMARK   82  A    between atoms: _191  and  _192
REMARK   83  A    between atoms: _196  and  _198
REMARK   84  A    between atoms: _198  and  _199
REMARK   85  A    between atoms: _201  and  _203
REMARK   86  A    between atoms: _203  and  _204
REMARK   87  A    between atoms: _203  and  _206
REMARK   88  A    between atoms: _209  and  _211
REMARK   89  A    between atoms: _211  and  _212
REMARK   90  A    between atoms: _211  and  _214
REMARK   91  A    between atoms: _214  and  _215
REMARK   92  A    between atoms: _217  and  _219
REMARK   93  A    between atoms: _219  and  _220
REMARK   94  A    between atoms: _219  and  _222
REMARK   95  A    between atoms: _222  and  _223
REMARK   96  A    between atoms: _225  and  _227
REMARK   97  A    between atoms: _227  and  _228
REMARK   98  A    between atoms: _227  and  _230
REMARK   99  A    between atoms: _230  and  _231
REMARK  100  A    between atoms: _237  and  _239
REMARK  101  A    between atoms: _239  and  _240
REMARK  102  A    between atoms: _239  and  _242
REMARK  103  A    between atoms: _242  and  _243
REMARK  104  A    between atoms: _246  and  _248
REMARK  105  A    between atoms: _248  and  _249
REMARK  106  A    between atoms: _248  and  _251
REMARK  107  A    between atoms: _251  and  _252
REMARK  108  A    between atoms: _255  and  _257
REMARK  109  A    between atoms: _257  and  _258
REMARK  110  A    between atoms: _257  and  _260
REMARK  111  A    between atoms: _260  and  _261
REMARK  112  A    between atoms: _264  and  _266
REMARK  113  A    between atoms: _266  and  _267
REMARK  114  A    between atoms: _266  and  _269
REMARK  115  A    between atoms: _269  and  _270
REMARK  116  A    between atoms: _270  and  _271
REMARK  117  A    between atoms: _273  and  _275
REMARK  118  A    between atoms: _275  and  _276
REMARK  119  A    between atoms: _275  and  _278
REMARK  120  A    between atoms: _278  and  _279
REMARK  121  A    between atoms: _285  and  _287
REMARK  122  A    between atoms: _287  and  _288
REMARK  123  A    between atoms: _287  and  _290
REMARK  124  A    between atoms: _292  and  _294
REMARK  125  A    between atoms: _294  and  _295
REMARK  126  A    between atoms: _298  and  _300
REMARK  127  A    between atoms: _300  and  _301
REMARK  128  A    between atoms: _303  and  _305
REMARK  129  A    between atoms: _305  and  _306
REMARK  130  A    between atoms: _305  and  _308
REMARK  131  A    between atoms: _308  and  _309
REMARK  132  A    between atoms: _309  and  _310
REMARK  133  A    between atoms: _313  and  _315
REMARK  134  A    between atoms: _315  and  _316
REMARK  135  A    between atoms: _315  and  _318
REMARK  136  A    between atoms: _318  and  _319
REMARK  137  A    between atoms: _322  and  _324
REMARK  138  A    between atoms: _324  and  _325
REMARK  139  A    between atoms: _328  and  _330
REMARK  140  A    between atoms: _330  and  _331
REMARK  141  A    between atoms: _330  and  _333
REMARK  142  A    between atoms: _333  and  _334
REMARK  143  A    between atoms: _334  and  _457
REMARK  144  A    between atoms: _335  and  _337
REMARK  145  A    between atoms: _337  and  _338
REMARK  146  A    between atoms: _337  and  _340
REMARK  147  A    between atoms: _340  and  _341
REMARK  148  A    between atoms: _341  and  _342
REMARK  149  A    between atoms: _347  and  _349
REMARK  150  A    between atoms: _349  and  _350
REMARK  151  A    between atoms: _352  and  _354
REMARK  152  A    between atoms: _354  and  _355
REMARK  153  A    between atoms: _354  and  _357
REMARK  154  A    between atoms: _357  and  _358
REMARK  155  A    between atoms: _361  and  _363
REMARK  156  A    between atoms: _363  and  _364
REMARK  157  A    between atoms: _363  and  _366
REMARK  158  A    between atoms: _366  and  _367
REMARK  159  A    between atoms: _369  and  _371
REMARK  160  A    between atoms: _371  and  _372
REMARK  161  A    between atoms: _374  and  _376
REMARK  162  A    between atoms: _376  and  _377
REMARK  163  A    between atoms: _379  and  _381
REMARK  164  A    between atoms: _381  and  _382
REMARK  165  A    between atoms: _381  and  _384
REMARK  166  A    between atoms: _384  and  _385
REMARK  167  A    between atoms: _390  and  _392
REMARK  168  A    between atoms: _392  and  _393
REMARK  169  A    between atoms: _392  and  _395
REMARK  170  A    between atoms: _395  and  _396
REMARK  171  A    between atoms: _399  and  _401
REMARK  172  A    between atoms: _401  and  _402
REMARK  173  A    between atoms: _401  and  _404
REMARK  174  A    between atoms: _407  and  _409
REMARK  175  A    between atoms: _409  and  _410
REMARK  176  A    between atoms: _409  and  _412
REMARK  177  A    between atoms: _412  and  _413
REMARK  178  A    between atoms: _415  and  _417
REMARK  179  A    between atoms: _417  and  _418
REMARK  180  A    between atoms: _417  and  _420
REMARK  181  A    between atoms: _420  and  _421
REMARK  182  A    between atoms: _431  and  _433
REMARK  183  A    between atoms: _433  and  _434
REMARK  184  A    between atoms: _436  and  _438
REMARK  185  A    between atoms: _438  and  _439
REMARK  186  A    between atoms: _438  and  _441
REMARK  187  A    between atoms: _441  and  _442
REMARK  188  A    between atoms: _442  and  _443
REMARK  189  A    between atoms: _446  and  _448
REMARK  190  A    between atoms: _448  and  _449
REMARK  191  A    between atoms: _451  and  _453
REMARK  192  A    between atoms: _453  and  _454
REMARK  193  A    between atoms: _453  and  _456
REMARK  194  A    between atoms: _456  and  _457
REMARK  195  A    between atoms: _458  and  _460
REMARK  196  A    between atoms: _460  and  _461
REMARK  197  A    between atoms: _464  and  _466
REMARK  198  A    between atoms: _466  and  _467
REMARK  199  A    between atoms: _466  and  _469
REMARK  200  A    between atoms: _469  and  _470
REMARK  201  A    between atoms: _470  and  _471
REMARK  202  A    between atoms: _471  and  _472
REMARK  203  A    between atoms: _481  and  _483
REMARK  204  A    between atoms: _483  and  _484
REMARK  205  A    between atoms: _483  and  _486
REMARK  206  A    between atoms: _486  and  _487
REMARK  207  A    between atoms: _487  and  _488
REMARK  208  A    between atoms: _488  and  _489
REMARK  209  A    between atoms: _489  and  _490
REMARK  210  A    between atoms: _494  and  _496
REMARK  211  A    between atoms: _496  and  _497
REMARK  212  A    between atoms: _496  and  _499
REMARK  213  A    between atoms: _499  and  _500
REMARK  214  A    between atoms: _505  and  _506
REMARK  215  A    between atoms: _508  and  _510
REMARK  216  A    between atoms: _510  and  _511
REMARK  217  A    between atoms: _513  and  _515
REMARK  218  A    between atoms: _515  and  _516
REMARK  219  A    between atoms: _515  and  _518
REMARK  220  A    between atoms: _518  and  _519
REMARK  221  A    between atoms: _522  and  _524
REMARK  222  A    between atoms: _524  and  _525
REMARK  223  A    between atoms: _524  and  _527
REMARK  224  A    between atoms: _527  and  _528
REMARK  225  A    between atoms: _533  and  _534
REMARK  226  A    between atoms: _536  and  _538
REMARK  227  A    between atoms: _538  and  _539
REMARK  228  A    between atoms: _538  and  _541
REMARK  229  A    between atoms: _541  and  _542
REMARK                            x       y       z     vdW  Elec       q    Type
REMARK                         _______ _______ _______ _____ _____    ______ ____
ROOT
ATOM      1  CB  GLN A   1      13.206  65.433  -8.155  0.00  0.00    +0.035 C 
ENDROOT
BRANCH   1   2
ATOM      2  CA  GLN A   1      12.534  64.860  -9.400  0.00  0.00    +0.134 C 
BRANCH   2   3
ATOM      3  N   GLN A   1      12.637  63.413  -9.350  0.00  0.00    -0.239 NA
ATOM      4  H   GLN A   1      13.420  62.969  -8.828  0.00  0.00    +0.142 HD
ENDBRANCH   2   3
BRANCH   2   5
ATOM      5  C   GLN A   1      13.023  65.546 -10.666  0.00  0.00    +0.224 C 
ATOM      6  O   GLN A   1      12.450  66.552 -11.083  0.00  0.00    -0.287 OA
ENDBRANCH   2   5
ENDBRANCH   1   2
BRANCH   1   7
ATOM      7  CG  GLN A   1      12.685  64.716  -6.922  0.00  0.00    +0.087 C 
BRANCH   7   8
ATOM      8  CD  GLN A   1      13.221  65.253  -5.620  0.00  0.00    +0.219 C 
ATOM      9  OE1 GLN A   1      13.072  64.612  -4.575  0.00  0.00    -0.275 OA
ATOM     10  NE2 GLN A   1      13.837  66.435  -5.662  0.00  0.00    -0.329 N 
ATOM     11 HE21 GLN A   1      14.216  66.855  -4.789  0.00  0.00    +0.145 HD
ATOM     12 HE22 GLN A   1      13.938  66.937  -6.567  0.00  0.00    +0.145 HD
ENDBRANCH   7   8
ENDBRANCH   1   7
TORSDOF 5
REMARK  Name = ../refined-set-2016/2xbw/2xbw_pocket.pdb
REMARK  229 active torsions:
REMARK  status: ('A' for Active; 'I' for Inactive)
REMARK    1  A    between atoms: _1  and  _5
REMARK    2  A    between atoms: _5  and  _6
REMARK    3  A    between atoms: _5  and  _8
REMARK    4  A    between atoms: _8  and  _9
REMARK    5  A    between atoms: _12  and  _14
REMARK    6  A    between atoms: _14  and  _15
REMARK    7  A    between atoms: _14  and  _17
REMARK    8  A    between atoms: _20  and  _22
REMARK    9  A    between atoms: _22  and  _23
REMARK   10  A    between atoms: _22  and  _25
REMARK   11  A    between atoms: _25  and  _26
REMARK   12  A    between atoms: _31  and  _33
REMARK   13  A    between atoms: _33  and  _34
REMARK   14  A    between atoms: _33  and  _36
REMARK   15  A    between atoms: _36  and  _37
REMARK   16  A    between atoms: _37  and  _38
REMARK   17  A    between atoms: _43  and  _45
REMARK   18  A    between atoms: _45  and  _46
REMARK   19  A    between atoms: _45  and  _48
REMARK   20  A    between atoms: _48  and  _49
REMARK   21  A    between atoms: _55  and  _57
REMARK   22  A    between atoms: _57  and  _58
REMARK   23  A    between atoms: _57  and  _60
REMARK   24  A    between atoms: _60  and  _61
REMARK   25  A    between atoms: _64  and  _66
REMARK   26  A    between atoms: _66  and  _67
REMARK   27  A    between atoms: _66  and  _69
REMARK   28  A    between atoms: _69  and  _70
REMARK   29  A    between atoms: _70  and  _71
REMARK   30  A    between atoms: _71  and  _72
REMARK   31  A    between atoms: _72  and  _73
REMARK   32  A    between atoms: _77  and  _79
REMARK   33  A    between atoms: _79  and  _80
REMARK   34  A    between atoms: _79  and  _82
REMARK   35  A    between atoms: _82  and  _83
REMARK   36  A    between atoms: _83  and  _84
REMARK   37  A    between atoms: _87  and  _89
REMARK   38  A    between atoms: _89  and  _90
REMARK   39  A    between atoms: _89  and  _92
REMARK   40  A    between atoms: _92  and  _93
REMARK   41  A    between atoms: _96  and  _98
REMARK   42  A    between atoms: _98  and  _99
REMARK   43  A    between atoms: _98  and  _101
REMARK   44  A    between atoms: _101  and  _102
REMARK   45  A    between atoms: _107  and  _108
REMARK   46  A    between atoms: _110  and  _112
REMARK   47  A    between atoms: _112  and  _113
REMARK   48  A    between atoms: _112  and  _115
REMARK   49  A    between atoms: _115  and  _116
REMARK   50  A    between atoms: _119  and  _121
REMARK   51  A    between atoms: _121  and  _122
REMARK   52  A    between atoms: _121  and  _124
REMARK   53  A    between atoms: _124  and  _125
REMARK   54  A    between atoms: _128  and  _130
REMARK   55  A    between atoms: _130  and  _131
REMARK   56  A    between atoms: _130  and  _133
REMARK   57  A    between atoms: _136  and  _138
REMARK   58  A    between atoms: _138  and  _139
REMARK   59  A    between atoms: _138  and  _141
REMARK   60  A    between atoms: _141  and  _142
REMARK   61  A    between atoms: _142  and  _143
REMARK   62  A    between atoms: _143  and  _144
REMARK   63  A    between atoms: _153  and  _155
REMARK   64  A    between atoms: _155  and  _156
REMARK   65  A    between atoms: _155  and  _158
REMARK   66  A    between atoms: _158  and  _159
REMARK   67  A    between atoms: _162  and  _164
REMARK   68  A    between atoms: _164  and  _165
REMARK   69  A    between atoms: _164  and  _167
REMARK   70  A    between atoms: _167  and  _168
REMARK   71  A    between atoms: _173  and  _175
REMARK   72  A    between atoms: _175  and  _176
REMARK   73  A    between atoms: _175  and  _178
REMARK   74  A    between atoms: _178  and  _179
REMARK   75  A    between atoms: _179  and  _180
REMARK   76  A    between atoms: _183  and  _185
REMARK   77  A    between atoms: _185  and  _186
REMARK   78  A    between atoms: _185  and  _188
REMARK   79  A    between atoms: _188  and  _189
REMARK   80  A    between atoms: _189  and  _190
REMARK   81  A    between atoms: _190  and  _191
REMARK   82  A    between atoms: _191  and  _192
REMARK   83  A    between atoms: _196  and  _198
REMARK   84  A    between atoms: _198  and  _199
REMARK   85  A    between atoms: _201  and  _203
REMARK   86  A    between atoms: _203  and  _204
REMARK   87  A    between atoms: _203  and  _206
REMARK   88  A    between atoms: _209  and  _211
REMARK   89  A    between atoms: _211  and  _212
REMARK   90  A    between atoms: _211  and  _214
REMARK   91  A    between atoms: _214  and  _215
REMARK   92  A    between atoms: _217  and  _219
REMARK   93  A    between atoms: _219  and  _220
REMARK   94  A    between atoms: _219  and  _222
REMARK   95  A    between atoms: _222  and  _223
REMARK   96  A    between atoms: _225  and  _227
REMARK   97  A    between atoms: _227  and  _228
REMARK   98  A    between atoms: _227  and  _230
REMARK   99  A    between atoms: _230  and  _231
REMARK  100  A    between atoms: _237  and  _239
REMARK  101  A    between atoms: _239  and  _240
REMARK  102  A    between atoms: _239  and  _242
REMARK  103  A    between atoms: _242  and  _243
REMARK  104  A    between atoms: _246  and  _248
REMARK  105  A    between atoms: _248  and  _249
REMARK  106  A    between atoms: _248  and  _251
REMARK  107  A    between atoms: _251  and  _252
REMARK  108  A    between atoms: _255  and  _257
REMARK  109  A    between atoms: _257  and  _258
REMARK  110  A    between atoms: _257  and  _260
REMARK  111  A    between atoms: _260  and  _261
REMARK  112  A    between atoms: _264  and  _266
REMARK  113  A    between atoms: _266  and  _267
REMARK  114  A    between atoms: _266  and  _269
REMARK  115  A    between atoms: _269  and  _270
REMARK  116  A    between atoms: _270  and  _271
REMARK  117  A    between atoms: _273  and  _275
REMARK  118  A    between atoms: _275  and  _276
REMARK  119  A    between atoms: _275  and  _278
REMARK  120  A    between atoms: _278  and  _279
REMARK  121  A    between atoms: _285  and  _287
REMARK  122  A    between atoms: _287  and  _288
REMARK  123  A    between atoms: _287  and  _290
REMARK  124  A    between atoms: _292  and  _294
REMARK  125  A    between atoms: _294  and  _295
REMARK  126  A    between atoms: _298  and  _300
REMARK  127  A    between atoms: _300  and  _301
REMARK  128  A    between atoms: _303  and  _305
REMARK  129  A    between atoms: _305  and  _306
REMARK  130  A    between atoms: _305  and  _308
REMARK  131  A    between atoms: _308  and  _309
REMARK  132  A    between atoms: _309  and  _310
REMARK  133  A    between atoms: _313  and  _315
REMARK  134  A    between atoms: _315  and  _316
REMARK  135  A    between atoms: _315  and  _318
REMARK  136  A    between atoms: _318  and  _319
REMARK  137  A    between atoms: _322  and  _324
REMARK  138  A    between atoms: _324  and  _325
REMARK  139  A    between atoms: _328  and  _330
REMARK  140  A    between atoms: _330  and  _331
REMARK  141  A    between atoms: _330  and  _333
REMARK  142  A    between atoms: _333  and  _334
REMARK  143  A    between atoms: _334  and  _457
REMARK  144  A    between atoms: _335  and  _337
REMARK  145  A    between atoms: _337  and  _338
REMARK  146  A    between atoms: _337  and  _340
REMARK  147  A    between atoms: _340  and  _341
REMARK  148  A    between atoms: _341  and  _342
REMARK  149  A    between atoms: _347  and  _349
REMARK  150  A    between atoms: _349  and  _350
REMARK  151  A    between atoms: _352  and  _354
REMARK  152  A    between atoms: _354  and  _355
REMARK  153  A    between atoms: _354  and  _357
REMARK  154  A    between atoms: _357  and  _358
REMARK  155  A    between atoms: _361  and  _363
REMARK  156  A    between atoms: _363  and  _364
REMARK  157  A    between atoms: _363  and  _366
REMARK  158  A    between atoms: _366  and  _367
REMARK  159  A    between atoms: _369  and  _371
REMARK  160  A    between atoms: _371  and  _372
REMARK  161  A    between atoms: _374  and  _376
REMARK  162  A    between atoms: _376  and  _377
REMARK  163  A    between atoms: _379  and  _381
REMARK  164  A    between atoms: _381  and  _382
REMARK  165  A    between atoms: _381  and  _384
REMARK  166  A    between atoms: _384  and  _385
REMARK  167  A    between atoms: _390  and  _392
REMARK  168  A    between atoms: _392  and  _393
REMARK  169  A    between atoms: _392  and  _395
REMARK  170  A    between atoms: _395  and  _396
REMARK  171  A    between atoms: _399  and  _401
REMARK  172  A    between atoms: _401  and  _402
REMARK  173  A    between atoms: _401  and  _404
REMARK  174  A    between atoms: _407  and  _409
REMARK  175  A    between atoms: _409  and  _410
REMARK  176  A    between atoms: _409  and  _412
REMARK  177  A    between atoms: _412  and  _413
REMARK  178  A    between atoms: _415  and  _417
REMARK  179  A    between atoms: _417  and  _418
REMARK  180  A    between atoms: _417  and  _420
REMARK  181  A    between atoms: _420  and  _421
REMARK  182  A    between atoms: _431  and  _433
REMARK  183  A    between atoms: _433  and  _434
REMARK  184  A    between atoms: _436  and  _438
REMARK  185  A    between atoms: _438  and  _439
REMARK  186  A    between atoms: _438  and  _441
REMARK  187  A    between atoms: _441  and  _442
REMARK  188  A    between atoms: _442  and  _443
REMARK  189  A    between atoms: _446  and  _448
REMARK  190  A    between atoms: _448  and  _449
REMARK  191  A    between atoms: _451  and  _453
REMARK  192  A    between atoms: _453  and  _454
REMARK  193  A    between atoms: _453  and  _456
REMARK  194  A    between atoms: _456  and  _457
REMARK  195  A    between atoms: _458  and  _460
REMARK  196  A    between atoms: _460  and  _461
REMARK  197  A    between atoms: _464  and  _466
REMARK  198  A    between atoms: _466  and  _467
REMARK  199  A    between atoms: _466  and  _469
REMARK  200  A    between atoms: _469  and  _470
REMARK  201  A    between atoms: _470  and  _471
REMARK  202  A    between atoms: _471  and  _472
REMARK  203  A    between atoms: _481  and  _483
REMARK  204  A    between atoms: _483  and  _484
REMARK  205  A    between atoms: _483  and  _486
REMARK  206  A    between atoms: _486  and  _487
REMARK  207  A    between atoms: _487  and  _488
REMARK  208  A    between atoms: _488  and  _489
REMARK  209  A    between atoms: _489  and  _490
REMARK  210  A    between atoms: _494  and  _496
REMARK  211  A    between atoms: _496  and  _497
REMARK  212  A    between atoms: _496  and  _499
REMARK  213  A    between atoms: _499  and  _500
REMARK  214  A    between atoms: _505  and  _506
REMARK  215  A    between atoms: _508  and  _510
REMARK  216  A    between atoms: _510  and  _511
REMARK  217  A    between atoms: _513  and  _515
REMARK  218  A    between atoms: _515  and  _516
REMARK  219  A    between atoms: _515  and  _518
REMARK  220  A    between atoms: _518  and  _519
REMARK  221  A    between atoms: _522  and  _524
REMARK  222  A    between atoms: _524  and  _525
REMARK  223  A    between atoms: _524  and  _527
REMARK  224  A    between atoms: _527  and  _528
REMARK  225  A    between atoms: _533  and  _534
REMARK  226  A    between atoms: _536  and  _538
REMARK  227  A    between atoms: _538  and  _539
REMARK  228  A    between atoms: _538  and  _541
REMARK  229  A    between atoms: _541  and  _542
REMARK                            x       y       z     vdW  Elec       q    Type
REMARK                         _______ _______ _______ _____ _____    ______ ____
ROOT
ATOM      1  CA  GLU A   4       3.879  54.183  -1.259  0.00  0.00    +0.149 C 
ENDROOT
BRANCH   1   4
ATOM      2  C   LYS A   3       5.598  55.644  -2.034  0.00  0.00    +0.241 C 
ATOM      3  O   LYS A   3       5.337  56.387  -1.106  0.00  0.00    -0.273 OA
ATOM      4  N   GLU A   4       4.932  54.519  -2.214  0.00  0.00    -0.297 N 
ATOM      5  H   GLU A   4       5.151  53.890  -3.013  0.00  0.00    +0.150 HD
BRANCH   2   6
ATOM      6  CA  LYS A   3       6.721  55.962  -3.017  0.00  0.00    +0.149 C 
BRANCH   6   9
ATOM      7  C   THR A   2       7.729  53.765  -3.251  0.00  0.00    +0.243 C 
ATOM      8  O   THR A   2       8.078  53.751  -2.078  0.00  0.00    -0.273 OA
ATOM      9  N   LYS A   3       7.091  54.793  -3.808  0.00  0.00    -0.297 N 
ATOM     10  H   LYS A   3       6.853  54.762  -4.820  0.00  0.00    +0.150 HD
BRANCH   7  11
ATOM     11  CA  THR A   2       8.042  52.584  -4.140  0.00  0.00    +0.176 C 
BRANCH  11  13
ATOM     12  C   PHE A   1      10.130  51.527  -4.689  0.00  0.00    +0.239 C 
ATOM     13  N   THR A   2       9.363  52.107  -3.782  0.00  0.00    -0.295 N 
ATOM     14  H   THR A   2       9.709  52.221  -2.808  0.00  0.00    +0.150 HD
ATOM     15  O   PHE A   1       9.734  51.286  -5.831  0.00  0.00    -0.274 OA
BRANCH  12  16
ATOM     16  CA  PHE A   1      11.551  51.148  -4.246  0.00  0.00    +0.149 C 
BRANCH  16  17
ATOM     17  N   PHE A   1      11.950  49.842  -4.771  0.00  0.00    -0.238 NA
ATOM     18  H   PHE A   1      12.727  49.755  -5.457  0.00  0.00    +0.142 HD
ENDBRANCH  16  17
BRANCH  16  19
ATOM     19  CB  PHE A   1      12.469  52.284  -4.721  0.00  0.00    +0.053 C 
BRANCH  19  20
ATOM     20  CG  PHE A   1      11.980  53.657  -4.287  0.00  0.00    -0.020 A 
ATOM     21  CD2 PHE A   1      12.065  54.062  -2.961  0.00  0.00    -0.004 A 
ATOM     22  CE2 PHE A   1      11.545  55.289  -2.548  0.00  0.00    -0.000 A 
ATOM     23  CZ  PHE A   1      10.932  56.134  -3.466  0.00  0.00    -0.000 A 
ATOM     24  CE1 PHE A   1      10.840  55.748  -4.797  0.00  0.00    -0.000 A 
ATOM     25  CD1 PHE A   1      11.361  54.516  -5.204  0.00  0.00    -0.004 A 
ENDBRANCH  19  20
ENDBRANCH  16  19
ENDBRANCH  12  16
ENDBRANCH  11  13
BRANCH  11  26
ATOM     26  CB  THR A   2       6.940  51.524  -3.927  0.00  0.00    +0.137 C 
ATOM     27  CG2 THR A   2       7.013  50.956  -2.538  0.00  0.00    +0.034 C 
BRANCH  26  28
ATOM     28  OG1 THR A   2       5.669  52.154  -4.075  0.00  0.00    -0.382 OA
ATOM     29  HG1 THR A   2       4.952  51.484  -3.941  0.00  0.00    +0.210 HD
ENDBRANCH  26  28
ENDBRANCH  11  26
ENDBRANCH   7  11
ENDBRANCH   6   9
BRANCH   6  30
ATOM     30  CB  LYS A   3       6.290  57.119  -3.934  0.00  0.00    +0.029 C 
BRANCH  30  31
ATOM     31  CG  LYS A   3       7.447  57.889  -4.526  0.00  0.00    +0.000 C 
BRANCH  31  32
ATOM     32  CD  LYS A   3       6.950  59.122  -5.284  0.00  0.00    -0.024 C 
BRANCH  32  33
ATOM     33  CE  LYS A   3       6.171  58.731  -6.530  0.00  0.00    -0.086 C 
BRANCH  33  34
ATOM     34  NZ  LYS A   3       5.794  59.922  -7.347  0.00  0.00    +0.380 N 
ATOM     35  HZ1 LYS A   3       5.200  60.558  -6.777  0.00  0.00    -0.089 HD
ATOM     36  HZ2 LYS A   3       6.655  60.424  -7.644  0.00  0.00    -0.089 HD
ATOM     37  HZ3 LYS A   3       5.265  59.611  -8.187  0.00  0.00    -0.089 HD
ENDBRANCH  33  34
ENDBRANCH  32  33
ENDBRANCH  31  32
ENDBRANCH  30  31
ENDBRANCH   6  30
ENDBRANCH   2   6
ENDBRANCH   1   4
BRANCH   1  38
ATOM     38  C   GLU A   4       4.438  54.029   0.167  0.00  0.00    +0.241 C 
ATOM     39  O   GLU A   4       3.830  54.479   1.141  0.00  0.00    -0.273 OA
ATOM     40  N   THR A   5       5.633  53.453   0.275  0.00  0.00    -0.295 N 
ATOM     41  H   THR A   5       6.147  53.192  -0.590  0.00  0.00    +0.150 HD
BRANCH  40  42
ATOM     42  CA  THR A   5       6.246  53.176   1.579  0.00  0.00    +0.176 C 
BRANCH  42  43
ATOM     43  C   THR A   5       7.612  53.848   1.801  0.00  0.00    +0.243 C 
ATOM     44  O   THR A   5       8.105  53.919   2.916  0.00  0.00    -0.273 OA
ATOM     45  N   TYR A   6       8.216  54.298   0.715  0.00  0.00    -0.297 N 
ATOM     46  H   TYR A   6       7.710  54.251  -0.192  0.00  0.00    +0.150 HD
BRANCH  45  47
ATOM     47  CA  TYR A   6       9.571  54.861   0.736  0.00  0.00    +0.153 C 
BRANCH  47  48
ATOM     48  C   TYR A   6      10.613  53.811   1.146  0.00  0.00    +0.241 C 
ATOM     49  O   TYR A   6      11.757  54.131   1.481  0.00  0.00    -0.273 OA
ATOM     50  N   ASP A   7      10.227  52.536   1.083  0.00  0.00    -0.298 N 
ATOM     51  H   ASP A   7       9.265  52.300   0.764  0.00  0.00    +0.150 HD
BRANCH  50  52
ATOM     52  CA  ASP A   7      11.143  51.479   1.457  0.00  0.00    +0.148 C 
BRANCH  52  53
ATOM     53  C   ASP A   7      12.134  51.287   0.292  0.00  0.00    +0.227 C 
ATOM     54  O   ASP A   7      11.840  51.676  -0.843  0.00  0.00    -0.286 OA
ENDBRANCH  52  53
BRANCH  52  55
ATOM     55  CB  ASP A   7      10.325  50.195   1.741  0.00  0.00    +0.142 C 
BRANCH  55  56
ATOM     56  CG  ASP A   7      11.089  49.183   2.567  0.00  0.00    +0.367 C 
ATOM     57  OD2 ASP A   7      12.206  49.516   3.028  0.00  0.00    -0.246 OA
ATOM     58  OD1 ASP A   7      10.555  48.058   2.755  0.00  0.00    -0.246 OA
ENDBRANCH  55  56
ENDBRANCH  52  55
ENDBRANCH  50  52
ENDBRANCH  47  48
BRANCH  47  59
ATOM     59  CB  TYR A   6       9.650  56.115   1.622  0.00  0.00    +0.055 C 
BRANCH  59  60
ATOM     60  CG  TYR A   6       9.540  57.367   0.759  0.00  0.00    -0.020 A 
ATOM     61  CD2 TYR A   6      10.650  58.182   0.538  0.00  0.00    -0.001 A 
ATOM     62  CE2 TYR A   6      10.588  59.280  -0.338  0.00  0.00    +0.036 A 
ATOM     63  CZ  TYR A   6       9.408  59.555  -0.989  0.00  0.00    +0.134 A 
ATOM     64  CE1 TYR A   6       8.279  58.767  -0.786  0.00  0.00    +0.036 A 
ATOM     65  CD1 TYR A   6       8.349  57.672   0.097  0.00  0.00    -0.001 A 
BRANCH  63  66
ATOM     66  OH  TYR A   6       9.359  60.618  -1.855  0.00  0.00    -0.506 OA
ATOM     67  HH  TYR A   6       8.450  60.686  -2.241  0.00  0.00    +0.292 HD
ENDBRANCH  63  66
ENDBRANCH  59  60
ENDBRANCH  47  59
ENDBRANCH  45  47
ENDBRANCH  42  43
BRANCH  42  68
ATOM     68  CB  THR A   5       6.518  51.663   1.718  0.00  0.00    +0.137 C 
ATOM     69  CG2 THR A   5       5.210  50.855   1.552  0.00  0.00    +0.034 C 
BRANCH  68  70
ATOM     70  OG1 THR A   5       7.450  51.258   0.700  0.00  0.00    -0.382 OA
ATOM     71  HG1 THR A   5       7.628  50.288   0.784  0.00  0.00    +0.210 HD
ENDBRANCH  68  70
ENDBRANCH  42  68
ENDBRANCH  40  42
ENDBRANCH   1  38
BRANCH   1  72
ATOM     72  CB  GLU A   4       3.198  52.878  -1.662  0.00  0.00    +0.041 C 
BRANCH  72  73
ATOM     73  CG  GLU A   4       2.026  52.511  -0.771  0.00  0.00    +0.116 C 
BRANCH  73  74
ATOM     74  CD  GLU A   4       1.445  51.147  -1.115  0.00  0.00    +0.365 C 
ATOM     75  OE2 GLU A   4       2.192  50.148  -1.050  0.00  0.00    -0.246 OA
ATOM     76  OE1 GLU A   4       0.245  51.074  -1.450  0.00  0.00    -0.246 OA
ENDBRANCH  73  74
ENDBRANCH  72  73
ENDBRANCH   1  72
TORSDOF 33
REMARK  Name = ../refined-set-2016/2xbw/2xbw_pocket.pdb
REMARK  229 active torsions:
REMARK  status: ('A' for Active; 'I' for Inactive)
REMARK    1  A    between atoms: _1  and  _5
REMARK    2  A    between atoms: _5  and  _6
REMARK    3  A    between atoms: _5  and  _8
REMARK    4  A    between atoms: _8  and  _9
REMARK    5  A    between atoms: _12  and  _14
REMARK    6  A    between atoms: _14  and  _15
REMARK    7  A    between atoms: _14  and  _17
REMARK    8  A    between atoms: _20  and  _22
REMARK    9  A    between atoms: _22  and  _23
REMARK   10  A    between atoms: _22  and  _25
REMARK   11  A    between atoms: _25  and  _26
REMARK   12  A    between atoms: _31  and  _33
REMARK   13  A    between atoms: _33  and  _34
REMARK   14  A    between atoms: _33  and  _36
REMARK   15  A    between atoms: _36  and  _37
REMARK   16  A    between atoms: _37  and  _38
REMARK   17  A    between atoms: _43  and  _45
REMARK   18  A    between atoms: _45  and  _46
REMARK   19  A    between atoms: _45  and  _48
REMARK   20  A    between atoms: _48  and  _49
REMARK   21  A    between atoms: _55  and  _57
REMARK   22  A    between atoms: _57  and  _58
REMARK   23  A    between atoms: _57  and  _60
REMARK   24  A    between atoms: _60  and  _61
REMARK   25  A    between atoms: _64  and  _66
REMARK   26  A    between atoms: _66  and  _67
REMARK   27  A    between atoms: _66  and  _69
REMARK   28  A    between atoms: _69  and  _70
REMARK   29  A    between atoms: _70  and  _71
REMARK   30  A    between atoms: _71  and  _72
REMARK   31  A    between atoms: _72  and  _73
REMARK   32  A    between atoms: _77  and  _79
REMARK   33  A    between atoms: _79  and  _80
REMARK   34  A    between atoms: _79  and  _82
REMARK   35  A    between atoms: _82  and  _83
REMARK   36  A    between atoms: _83  and  _84
REMARK   37  A    between atoms: _87  and  _89
REMARK   38  A    between atoms: _89  and  _90
REMARK   39  A    between atoms: _89  and  _92
REMARK   40  A    between atoms: _92  and  _93
REMARK   41  A    between atoms: _96  and  _98
REMARK   42  A    between atoms: _98  and  _99
REMARK   43  A    between atoms: _98  and  _101
REMARK   44  A    between atoms: _101  and  _102
REMARK   45  A    between atoms: _107  and  _108
REMARK   46  A    between atoms: _110  and  _112
REMARK   47  A    between atoms: _112  and  _113
REMARK   48  A    between atoms: _112  and  _115
REMARK   49  A    between atoms: _115  and  _116
REMARK   50  A    between atoms: _119  and  _121
REMARK   51  A    between atoms: _121  and  _122
REMARK   52  A    between atoms: _121  and  _124
REMARK   53  A    between atoms: _124  and  _125
REMARK   54  A    between atoms: _128  and  _130
REMARK   55  A    between atoms: _130  and  _131
REMARK   56  A    between atoms: _130  and  _133
REMARK   57  A    between atoms: _136  and  _138
REMARK   58  A    between atoms: _138  and  _139
REMARK   59  A    between atoms: _138  and  _141
REMARK   60  A    between atoms: _141  and  _142
REMARK   61  A    between atoms: _142  and  _143
REMARK   62  A    between atoms: _143  and  _144
REMARK   63  A    between atoms: _153  and  _155
REMARK   64  A    between atoms: _155  and  _156
REMARK   65  A    between atoms: _155  and  _158
REMARK   66  A    between atoms: _158  and  _159
REMARK   67  A    between atoms: _162  and  _164
REMARK   68  A    between atoms: _164  and  _165
REMARK   69  A    between atoms: _164  and  _167
REMARK   70  A    between atoms: _167  and  _168
REMARK   71  A    between atoms: _173  and  _175
REMARK   72  A    between atoms: _175  and  _176
REMARK   73  A    between atoms: _175  and  _178
REMARK   74  A    between atoms: _178  and  _179
REMARK   75  A    between atoms: _179  and  _180
REMARK   76  A    between atoms: _183  and  _185
REMARK   77  A    between atoms: _185  and  _186
REMARK   78  A    between atoms: _185  and  _188
REMARK   79  A    between atoms: _188  and  _189
REMARK   80  A    between atoms: _189  and  _190
REMARK   81  A    between atoms: _190  and  _191
REMARK   82  A    between atoms: _191  and  _192
REMARK   83  A    between atoms: _196  and  _198
REMARK   84  A    between atoms: _198  and  _199
REMARK   85  A    between atoms: _201  and  _203
REMARK   86  A    between atoms: _203  and  _204
REMARK   87  A    between atoms: _203  and  _206
REMARK   88  A    between atoms: _209  and  _211
REMARK   89  A    between atoms: _211  and  _212
REMARK   90  A    between atoms: _211  and  _214
REMARK   91  A    between atoms: _214  and  _215
REMARK   92  A    between atoms: _217  and  _219
REMARK   93  A    between atoms: _219  and  _220
REMARK   94  A    between atoms: _219  and  _222
REMARK   95  A    between atoms: _222  and  _223
REMARK   96  A    between atoms: _225  and  _227
REMARK   97  A    between atoms: _227  and  _228
REMARK   98  A    between atoms: _227  and  _230
REMARK   99  A    between atoms: _230  and  _231
REMARK  100  A    between atoms: _237  and  _239
REMARK  101  A    between atoms: _239  and  _240
REMARK  102  A    between atoms: _239  and  _242
REMARK  103  A    between atoms: _242  and  _243
REMARK  104  A    between atoms: _246  and  _248
REMARK  105  A    between atoms: _248  and  _249
REMARK  106  A    between atoms: _248  and  _251
REMARK  107  A    between atoms: _251  and  _252
REMARK  108  A    between atoms: _255  and  _257
REMARK  109  A    between atoms: _257  and  _258
REMARK  110  A    between atoms: _257  and  _260
REMARK  111  A    between atoms: _260  and  _261
REMARK  112  A    between atoms: _264  and  _266
REMARK  113  A    between atoms: _266  and  _267
REMARK  114  A    between atoms: _266  and  _269
REMARK  115  A    between atoms: _269  and  _270
REMARK  116  A    between atoms: _270  and  _271
REMARK  117  A    between atoms: _273  and  _275
REMARK  118  A    between atoms: _275  and  _276
REMARK  119  A    between atoms: _275  and  _278
REMARK  120  A    between atoms: _278  and  _279
REMARK  121  A    between atoms: _285  and  _287
REMARK  122  A    between atoms: _287  and  _288
REMARK  123  A    between atoms: _287  and  _290
REMARK  124  A    between atoms: _292  and  _294
REMARK  125  A    between atoms: _294  and  _295
REMARK  126  A    between atoms: _298  and  _300
REMARK  127  A    between atoms: _300  and  _301
REMARK  128  A    between atoms: _303  and  _305
REMARK  129  A    between atoms: _305  and  _306
REMARK  130  A    between atoms: _305  and  _308
REMARK  131  A    between atoms: _308  and  _309
REMARK  132  A    between atoms: _309  and  _310
REMARK  133  A    between atoms: _313  and  _315
REMARK  134  A    between atoms: _315  and  _316
REMARK  135  A    between atoms: _315  and  _318
REMARK  136  A    between atoms: _318  and  _319
REMARK  137  A    between atoms: _322  and  _324
REMARK  138  A    between atoms: _324  and  _325
REMARK  139  A    between atoms: _328  and  _330
REMARK  140  A    between atoms: _330  and  _331
REMARK  141  A    between atoms: _330  and  _333
REMARK  142  A    between atoms: _333  and  _334
REMARK  143  A    between atoms: _334  and  _457
REMARK  144  A    between atoms: _335  and  _337
REMARK  145  A    between atoms: _337  and  _338
REMARK  146  A    between atoms: _337  and  _340
REMARK  147  A    between atoms: _340  and  _341
REMARK  148  A    between atoms: _341  and  _342
REMARK  149  A    between atoms: _347  and  _349
REMARK  150  A    between atoms: _349  and  _350
REMARK  151  A    between atoms: _352  and  _354
REMARK  152  A    between atoms: _354  and  _355
REMARK  153  A    between atoms: _354  and  _357
REMARK  154  A    between atoms: _357  and  _358
REMARK  155  A    between atoms: _361  and  _363
REMARK  156  A    between atoms: _363  and  _364
REMARK  157  A    between atoms: _363  and  _366
REMARK  158  A    between atoms: _366  and  _367
REMARK  159  A    between atoms: _369  and  _371
REMARK  160  A    between atoms: _371  and  _372
REMARK  161  A    between atoms: _374  and  _376
REMARK  162  A    between atoms: _376  and  _377
REMARK  163  A    between atoms: _379  and  _381
REMARK  164  A    between atoms: _381  and  _382
REMARK  165  A    between atoms: _381  and  _384
REMARK  166  A    between atoms: _384  and  _385
REMARK  167  A    between atoms: _390  and  _392
REMARK  168  A    between atoms: _392  and  _393
REMARK  169  A    between atoms: _392  and  _395
REMARK  170  A    between atoms: _395  and  _396
REMARK  171  A    between atoms: _399  and  _401
REMARK  172  A    between atoms: _401  and  _402
REMARK  173  A    between atoms: _401  and  _404
REMARK  174  A    between atoms: _407  and  _409
REMARK  175  A    between atoms: _409  and  _410
REMARK  176  A    between atoms: _409  and  _412
REMARK  177  A    between atoms: _412  and  _413
REMARK  178  A    between atoms: _415  and  _417
REMARK  179  A    between atoms: _417  and  _418
REMARK  180  A    between atoms: _417  and  _420
REMARK  181  A    between atoms: _420  and  _421
REMARK  182  A    between atoms: _431  and  _433
REMARK  183  A    between atoms: _433  and  _434
REMARK  184  A    between atoms: _436  and  _438
REMARK  185  A    between atoms: _438  and  _439
REMARK  186  A    between atoms: _438  and  _441
REMARK  187  A    between atoms: _441  and  _442
REMARK  188  A    between atoms: _442  and  _443
REMARK  189  A    between atoms: _446  and  _448
REMARK  190  A    between atoms: _448  and  _449
REMARK  191  A    between atoms: _451  and  _453
REMARK  192  A    between atoms: _453  and  _454
REMARK  193  A    between atoms: _453  and  _456
REMARK  194  A    between atoms: _456  and  _457
REMARK  195  A    between atoms: _458  and  _460
REMARK  196  A    between atoms: _460  and  _461
REMARK  197  A    between atoms: _464  and  _466
REMARK  198  A    between atoms: _466  and  _467
REMARK  199  A    between atoms: _466  and  _469
REMARK  200  A    between atoms: _469  and  _470
REMARK  201  A    between atoms: _470  and  _471
REMARK  202  A    between atoms: _471  and  _472
REMARK  203  A    between atoms: _481  and  _483
REMARK  204  A    between atoms: _483  and  _484
REMARK  205  A    between atoms: _483  and  _486
REMARK  206  A    between atoms: _486  and  _487
REMARK  207  A    between atoms: _487  and  _488
REMARK  208  A    between atoms: _488  and  _489
REMARK  209  A    between atoms: _489  and  _490
REMARK  210  A    between atoms: _494  and  _496
REMARK  211  A    between atoms: _496  and  _497
REMARK  212  A    between atoms: _496  and  _499
REMARK  213  A    between atoms: _499  and  _500
REMARK  214  A    between atoms: _505  and  _506
REMARK  215  A    between atoms: _508  and  _510
REMARK  216  A    between atoms: _510  and  _511
REMARK  217  A    between atoms: _513  and  _515
REMARK  218  A    between atoms: _515  and  _516
REMARK  219  A    between atoms: _515  and  _518
REMARK  220  A    between atoms: _518  and  _519
REMARK  221  A    between atoms: _522  and  _524
REMARK  222  A    between atoms: _524  and  _525
REMARK  223  A    between atoms: _524  and  _527
REMARK  224  A    between atoms: _527  and  _528
REMARK  225  A    between atoms: _533  and  _534
REMARK  226  A    between atoms: _536  and  _538
REMARK  227  A    between atoms: _538  and  _539
REMARK  228  A    between atoms: _538  and  _541
REMARK  229  A    between atoms: _541  and  _542
REMARK                            x       y       z     vdW  Elec       q    Type
REMARK                         _______ _______ _______ _____ _____    ______ ____
ROOT
ATOM      1  CA  ASP A   1      15.166  54.150  -1.006  0.00  0.00    +0.144 C 
ENDROOT
BRANCH   1   2
ATOM      2  N   ASP A   1      14.883  52.840  -0.394  0.00  0.00    -0.239 NA
ATOM      3  H   ASP A   1      14.798  52.759   0.639  0.00  0.00    +0.142 HD
ENDBRANCH   1   2
BRANCH   1   4
ATOM      4  C   ASP A   1      16.662  54.300  -1.255  0.00  0.00    +0.225 C 
ATOM      5  O   ASP A   1      17.377  54.990  -0.526  0.00  0.00    -0.287 OA
ENDBRANCH   1   4
BRANCH   1   6
ATOM      6  CB  ASP A   1      14.624  55.249  -0.099  0.00  0.00    +0.139 C 
BRANCH   6   7
ATOM      7  CG  ASP A   1      14.616  56.619  -0.768  0.00  0.00    +0.367 C 
ATOM      8  OD2 ASP A   1      14.408  57.623  -0.044  0.00  0.00    -0.246 OA
ATOM      9  OD1 ASP A   1      14.809  56.680  -2.011  0.00  0.00    -0.246 OA
ENDBRANCH   6   7
ENDBRANCH   1   6
TORSDOF 4
REMARK  Name = ../refined-set-2016/2xbw/2xbw_pocket.pdb
REMARK  229 active torsions:
REMARK  status: ('A' for Active; 'I' for Inactive)
REMARK    1  A    between atoms: _1  and  _5
REMARK    2  A    between atoms: _5  and  _6
REMARK    3  A    between atoms: _5  and  _8
REMARK    4  A    between atoms: _8  and  _9
REMARK    5  A    between atoms: _12  and  _14
REMARK    6  A    between atoms: _14  and  _15
REMARK    7  A    between atoms: _14  and  _17
REMARK    8  A    between atoms: _20  and  _22
REMARK    9  A    between atoms: _22  and  _23
REMARK   10  A    between atoms: _22  and  _25
REMARK   11  A    between atoms: _25  and  _26
REMARK   12  A    between atoms: _31  and  _33
REMARK   13  A    between atoms: _33  and  _34
REMARK   14  A    between atoms: _33  and  _36
REMARK   15  A    between atoms: _36  and  _37
REMARK   16  A    between atoms: _37  and  _38
REMARK   17  A    between atoms: _43  and  _45
REMARK   18  A    between atoms: _45  and  _46
REMARK   19  A    between atoms: _45  and  _48
REMARK   20  A    between atoms: _48  and  _49
REMARK   21  A    between atoms: _55  and  _57
REMARK   22  A    between atoms: _57  and  _58
REMARK   23  A    between atoms: _57  and  _60
REMARK   24  A    between atoms: _60  and  _61
REMARK   25  A    between atoms: _64  and  _66
REMARK   26  A    between atoms: _66  and  _67
REMARK   27  A    between atoms: _66  and  _69
REMARK   28  A    between atoms: _69  and  _70
REMARK   29  A    between atoms: _70  and  _71
REMARK   30  A    between atoms: _71  and  _72
REMARK   31  A    between atoms: _72  and  _73
REMARK   32  A    between atoms: _77  and  _79
REMARK   33  A    between atoms: _79  and  _80
REMARK   34  A    between atoms: _79  and  _82
REMARK   35  A    between atoms: _82  and  _83
REMARK   36  A    between atoms: _83  and  _84
REMARK   37  A    between atoms: _87  and  _89
REMARK   38  A    between atoms: _89  and  _90
REMARK   39  A    between atoms: _89  and  _92
REMARK   40  A    between atoms: _92  and  _93
REMARK   41  A    between atoms: _96  and  _98
REMARK   42  A    between atoms: _98  and  _99
REMARK   43  A    between atoms: _98  and  _101
REMARK   44  A    between atoms: _101  and  _102
REMARK   45  A    between atoms: _107  and  _108
REMARK   46  A    between atoms: _110  and  _112
REMARK   47  A    between atoms: _112  and  _113
REMARK   48  A    between atoms: _112  and  _115
REMARK   49  A    between atoms: _115  and  _116
REMARK   50  A    between atoms: _119  and  _121
REMARK   51  A    between atoms: _121  and  _122
REMARK   52  A    between atoms: _121  and  _124
REMARK   53  A    between atoms: _124  and  _125
REMARK   54  A    between atoms: _128  and  _130
REMARK   55  A    between atoms: _130  and  _131
REMARK   56  A    between atoms: _130  and  _133
REMARK   57  A    between atoms: _136  and  _138
REMARK   58  A    between atoms: _138  and  _139
REMARK   59  A    between atoms: _138  and  _141
REMARK   60  A    between atoms: _141  and  _142
REMARK   61  A    between atoms: _142  and  _143
REMARK   62  A    between atoms: _143  and  _144
REMARK   63  A    between atoms: _153  and  _155
REMARK   64  A    between atoms: _155  and  _156
REMARK   65  A    between atoms: _155  and  _158
REMARK   66  A    between atoms: _158  and  _159
REMARK   67  A    between atoms: _162  and  _164
REMARK   68  A    between atoms: _164  and  _165
REMARK   69  A    between atoms: _164  and  _167
REMARK   70  A    between atoms: _167  and  _168
REMARK   71  A    between atoms: _173  and  _175
REMARK   72  A    between atoms: _175  and  _176
REMARK   73  A    between atoms: _175  and  _178
REMARK   74  A    between atoms: _178  and  _179
REMARK   75  A    between atoms: _179  and  _180
REMARK   76  A    between atoms: _183  and  _185
REMARK   77  A    between atoms: _185  and  _186
REMARK   78  A    between atoms: _185  and  _188
REMARK   79  A    between atoms: _188  and  _189
REMARK   80  A    between atoms: _189  and  _190
REMARK   81  A    between atoms: _190  and  _191
REMARK   82  A    between atoms: _191  and  _192
REMARK   83  A    between atoms: _196  and  _198
REMARK   84  A    between atoms: _198  and  _199
REMARK   85  A    between atoms: _201  and  _203
REMARK   86  A    between atoms: _203  and  _204
REMARK   87  A    between atoms: _203  and  _206
REMARK   88  A    between atoms: _209  and  _211
REMARK   89  A    between atoms: _211  and  _212
REMARK   90  A    between atoms: _211  and  _214
REMARK   91  A    between atoms: _214  and  _215
REMARK   92  A    between atoms: _217  and  _219
REMARK   93  A    between atoms: _219  and  _220
REMARK   94  A    between atoms: _219  and  _222
REMARK   95  A    between atoms: _222  and  _223
REMARK   96  A    between atoms: _225  and  _227
REMARK   97  A    between atoms: _227  and  _228
REMARK   98  A    between atoms: _227  and  _230
REMARK   99  A    between atoms: _230  and  _231
REMARK  100  A    between atoms: _237  and  _239
REMARK  101  A    between atoms: _239  and  _240
REMARK  102  A    between atoms: _239  and  _242
REMARK  103  A    between atoms: _242  and  _243
REMARK  104  A    between atoms: _246  and  _248
REMARK  105  A    between atoms: _248  and  _249
REMARK  106  A    between atoms: _248  and  _251
REMARK  107  A    between atoms: _251  and  _252
REMARK  108  A    between atoms: _255  and  _257
REMARK  109  A    between atoms: _257  and  _258
REMARK  110  A    between atoms: _257  and  _260
REMARK  111  A    between atoms: _260  and  _261
REMARK  112  A    between atoms: _264  and  _266
REMARK  113  A    between atoms: _266  and  _267
REMARK  114  A    between atoms: _266  and  _269
REMARK  115  A    between atoms: _269  and  _270
REMARK  116  A    between atoms: _270  and  _271
REMARK  117  A    between atoms: _273  and  _275
REMARK  118  A    between atoms: _275  and  _276
REMARK  119  A    between atoms: _275  and  _278
REMARK  120  A    between atoms: _278  and  _279
REMARK  121  A    between atoms: _285  and  _287
REMARK  122  A    between atoms: _287  and  _288
REMARK  123  A    between atoms: _287  and  _290
REMARK  124  A    between atoms: _292  and  _294
REMARK  125  A    between atoms: _294  and  _295
REMARK  126  A    between atoms: _298  and  _300
REMARK  127  A    between atoms: _300  and  _301
REMARK  128  A    between atoms: _303  and  _305
REMARK  129  A    between atoms: _305  and  _306
REMARK  130  A    between atoms: _305  and  _308
REMARK  131  A    between atoms: _308  and  _309
REMARK  132  A    between atoms: _309  and  _310
REMARK  133  A    between atoms: _313  and  _315
REMARK  134  A    between atoms: _315  and  _316
REMARK  135  A    between atoms: _315  and  _318
REMARK  136  A    between atoms: _318  and  _319
REMARK  137  A    between atoms: _322  and  _324
REMARK  138  A    between atoms: _324  and  _325
REMARK  139  A    between atoms: _328  and  _330
REMARK  140  A    between atoms: _330  and  _331
REMARK  141  A    between atoms: _330  and  _333
REMARK  142  A    between atoms: _333  and  _334
REMARK  143  A    between atoms: _334  and  _457
REMARK  144  A    between atoms: _335  and  _337
REMARK  145  A    between atoms: _337  and  _338
REMARK  146  A    between atoms: _337  and  _340
REMARK  147  A    between atoms: _340  and  _341
REMARK  148  A    between atoms: _341  and  _342
REMARK  149  A    between atoms: _347  and  _349
REMARK  150  A    between atoms: _349  and  _350
REMARK  151  A    between atoms: _352  and  _354
REMARK  152  A    between atoms: _354  and  _355
REMARK  153  A    between atoms: _354  and  _357
REMARK  154  A    between atoms: _357  and  _358
REMARK  155  A    between atoms: _361  and  _363
REMARK  156  A    between atoms: _363  and  _364
REMARK  157  A    between atoms: _363  and  _366
REMARK  158  A    between atoms: _366  and  _367
REMARK  159  A    between atoms: _369  and  _371
REMARK  160  A    between atoms: _371  and  _372
REMARK  161  A    between atoms: _374  and  _376
REMARK  162  A    between atoms: _376  and  _377
REMARK  163  A    between atoms: _379  and  _381
REMARK  164  A    between atoms: _381  and  _382
REMARK  165  A    between atoms: _381  and  _384
REMARK  166  A    between atoms: _384  and  _385
REMARK  167  A    between atoms: _390  and  _392
REMARK  168  A    between atoms: _392  and  _393
REMARK  169  A    between atoms: _392  and  _395
REMARK  170  A    between atoms: _395  and  _396
REMARK  171  A    between atoms: _399  and  _401
REMARK  172  A    between atoms: _401  and  _402
REMARK  173  A    between atoms: _401  and  _404
REMARK  174  A    between atoms: _407  and  _409
REMARK  175  A    between atoms: _409  and  _410
REMARK  176  A    between atoms: _409  and  _412
REMARK  177  A    between atoms: _412  and  _413
REMARK  178  A    between atoms: _415  and  _417
REMARK  179  A    between atoms: _417  and  _418
REMARK  180  A    between atoms: _417  and  _420
REMARK  181  A    between atoms: _420  and  _421
REMARK  182  A    between atoms: _431  and  _433
REMARK  183  A    between atoms: _433  and  _434
REMARK  184  A    between atoms: _436  and  _438
REMARK  185  A    between atoms: _438  and  _439
REMARK  186  A    between atoms: _438  and  _441
REMARK  187  A    between atoms: _441  and  _442
REMARK  188  A    between atoms: _442  and  _443
REMARK  189  A    between atoms: _446  and  _448
REMARK  190  A    between atoms: _448  and  _449
REMARK  191  A    between atoms: _451  and  _453
REMARK  192  A    between atoms: _453  and  _454
REMARK  193  A    between atoms: _453  and  _456
REMARK  194  A    between atoms: _456  and  _457
REMARK  195  A    between atoms: _458  and  _460
REMARK  196  A    between atoms: _460  and  _461
REMARK  197  A    between atoms: _464  and  _466
REMARK  198  A    between atoms: _466  and  _467
REMARK  199  A    between atoms: _466  and  _469
REMARK  200  A    between atoms: _469  and  _470
REMARK  201  A    between atoms: _470  and  _471
REMARK  202  A    between atoms: _471  and  _472
REMARK  203  A    between atoms: _481  and  _483
REMARK  204  A    between atoms: _483  and  _484
REMARK  205  A    between atoms: _483  and  _486
REMARK  206  A    between atoms: _486  and  _487
REMARK  207  A    between atoms: _487  and  _488
REMARK  208  A    between atoms: _488  and  _489
REMARK  209  A    between atoms: _489  and  _490
REMARK  210  A    between atoms: _494  and  _496
REMARK  211  A    between atoms: _496  and  _497
REMARK  212  A    between atoms: _496  and  _499
REMARK  213  A    between atoms: _499  and  _500
REMARK  214  A    between atoms: _505  and  _506
REMARK  215  A    between atoms: _508  and  _510
REMARK  216  A    between atoms: _510  and  _511
REMARK  217  A    between atoms: _513  and  _515
REMARK  218  A    between atoms: _515  and  _516
REMARK  219  A    between atoms: _515  and  _518
REMARK  220  A    between atoms: _518  and  _519
REMARK  221  A    between atoms: _522  and  _524
REMARK  222  A    between atoms: _524  and  _525
REMARK  223  A    between atoms: _524  and  _527
REMARK  224  A    between atoms: _527  and  _528
REMARK  225  A    between atoms: _533  and  _534
REMARK  226  A    between atoms: _536  and  _538
REMARK  227  A    between atoms: _538  and  _539
REMARK  228  A    between atoms: _538  and  _541
REMARK  229  A    between atoms: _541  and  _542
REMARK                            x       y       z     vdW  Elec       q    Type
REMARK                         _______ _______ _______ _____ _____    ______ ____
ROOT
ATOM      1  CA  VAL A   1      24.642  64.217   8.054  0.00  0.00    +0.133 C 
ENDROOT
BRANCH   1   2
ATOM      2  CB  VAL A   1      23.096  64.146   8.295  0.00  0.00    +0.023 C 
ATOM      3  CG2 VAL A   1      22.657  65.259   9.241  0.00  0.00    +0.002 C 
ATOM      4  CG1 VAL A   1      22.341  64.242   6.951  0.00  0.00    +0.002 C 
ENDBRANCH   1   2
BRANCH   1   5
ATOM      5  N   VAL A   1      25.369  64.044   9.307  0.00  0.00    -0.239 NA
ATOM      6  H   VAL A   1      25.176  64.673  10.113  0.00  0.00    +0.142 HD
ENDBRANCH   1   5
BRANCH   1   7
ATOM      7  C   VAL A   1      25.053  65.574   7.463  0.00  0.00    +0.224 C 
ATOM      8  O   VAL A   1      25.436  66.512   8.185  0.00  0.00    -0.287 OA
ENDBRANCH   1   7
TORSDOF 3
REMARK  Name = ../refined-set-2016/2xbw/2xbw_pocket.pdb
REMARK  229 active torsions:
REMARK  status: ('A' for Active; 'I' for Inactive)
REMARK    1  A    between atoms: _1  and  _5
REMARK    2  A    between atoms: _5  and  _6
REMARK    3  A    between atoms: _5  and  _8
REMARK    4  A    between atoms: _8  and  _9
REMARK    5  A    between atoms: _12  and  _14
REMARK    6  A    between atoms: _14  and  _15
REMARK    7  A    between atoms: _14  and  _17
REMARK    8  A    between atoms: _20  and  _22
REMARK    9  A    between atoms: _22  and  _23
REMARK   10  A    between atoms: _22  and  _25
REMARK   11  A    between atoms: _25  and  _26
REMARK   12  A    between atoms: _31  and  _33
REMARK   13  A    between atoms: _33  and  _34
REMARK   14  A    between atoms: _33  and  _36
REMARK   15  A    between atoms: _36  and  _37
REMARK   16  A    between atoms: _37  and  _38
REMARK   17  A    between atoms: _43  and  _45
REMARK   18  A    between atoms: _45  and  _46
REMARK   19  A    between atoms: _45  and  _48
REMARK   20  A    between atoms: _48  and  _49
REMARK   21  A    between atoms: _55  and  _57
REMARK   22  A    between atoms: _57  and  _58
REMARK   23  A    between atoms: _57  and  _60
REMARK   24  A    between atoms: _60  and  _61
REMARK   25  A    between atoms: _64  and  _66
REMARK   26  A    between atoms: _66  and  _67
REMARK   27  A    between atoms: _66  and  _69
REMARK   28  A    between atoms: _69  and  _70
REMARK   29  A    between atoms: _70  and  _71
REMARK   30  A    between atoms: _71  and  _72
REMARK   31  A    between atoms: _72  and  _73
REMARK   32  A    between atoms: _77  and  _79
REMARK   33  A    between atoms: _79  and  _80
REMARK   34  A    between atoms: _79  and  _82
REMARK   35  A    between atoms: _82  and  _83
REMARK   36  A    between atoms: _83  and  _84
REMARK   37  A    between atoms: _87  and  _89
REMARK   38  A    between atoms: _89  and  _90
REMARK   39  A    between atoms: _89  and  _92
REMARK   40  A    between atoms: _92  and  _93
REMARK   41  A    between atoms: _96  and  _98
REMARK   42  A    between atoms: _98  and  _99
REMARK   43  A    between atoms: _98  and  _101
REMARK   44  A    between atoms: _101  and  _102
REMARK   45  A    between atoms: _107  and  _108
REMARK   46  A    between atoms: _110  and  _112
REMARK   47  A    between atoms: _112  and  _113
REMARK   48  A    between atoms: _112  and  _115
REMARK   49  A    between atoms: _115  and  _116
REMARK   50  A    between atoms: _119  and  _121
REMARK   51  A    between atoms: _121  and  _122
REMARK   52  A    between atoms: _121  and  _124
REMARK   53  A    between atoms: _124  and  _125
REMARK   54  A    between atoms: _128  and  _130
REMARK   55  A    between atoms: _130  and  _131
REMARK   56  A    between atoms: _130  and  _133
REMARK   57  A    between atoms: _136  and  _138
REMARK   58  A    between atoms: _138  and  _139
REMARK   59  A    between atoms: _138  and  _141
REMARK   60  A    between atoms: _141  and  _142
REMARK   61  A    between atoms: _142  and  _143
REMARK   62  A    between atoms: _143  and  _144
REMARK   63  A    between atoms: _153  and  _155
REMARK   64  A    between atoms: _155  and  _156
REMARK   65  A    between atoms: _155  and  _158
REMARK   66  A    between atoms: _158  and  _159
REMARK   67  A    between atoms: _162  and  _164
REMARK   68  A    between atoms: _164  and  _165
REMARK   69  A    between atoms: _164  and  _167
REMARK   70  A    between atoms: _167  and  _168
REMARK   71  A    between atoms: _173  and  _175
REMARK   72  A    between atoms: _175  and  _176
REMARK   73  A    between atoms: _175  and  _178
REMARK   74  A    between atoms: _178  and  _179
REMARK   75  A    between atoms: _179  and  _180
REMARK   76  A    between atoms: _183  and  _185
REMARK   77  A    between atoms: _185  and  _186
REMARK   78  A    between atoms: _185  and  _188
REMARK   79  A    between atoms: _188  and  _189
REMARK   80  A    between atoms: _189  and  _190
REMARK   81  A    between atoms: _190  and  _191
REMARK   82  A    between atoms: _191  and  _192
REMARK   83  A    between atoms: _196  and  _198
REMARK   84  A    between atoms: _198  and  _199
REMARK   85  A    between atoms: _201  and  _203
REMARK   86  A    between atoms: _203  and  _204
REMARK   87  A    between atoms: _203  and  _206
REMARK   88  A    between atoms: _209  and  _211
REMARK   89  A    between atoms: _211  and  _212
REMARK   90  A    between atoms: _211  and  _214
REMARK   91  A    between atoms: _214  and  _215
REMARK   92  A    between atoms: _217  and  _219
REMARK   93  A    between atoms: _219  and  _220
REMARK   94  A    between atoms: _219  and  _222
REMARK   95  A    between atoms: _222  and  _223
REMARK   96  A    between atoms: _225  and  _227
REMARK   97  A    between atoms: _227  and  _228
REMARK   98  A    between atoms: _227  and  _230
REMARK   99  A    between atoms: _230  and  _231
REMARK  100  A    between atoms: _237  and  _239
REMARK  101  A    between atoms: _239  and  _240
REMARK  102  A    between atoms: _239  and  _242
REMARK  103  A    between atoms: _242  and  _243
REMARK  104  A    between atoms: _246  and  _248
REMARK  105  A    between atoms: _248  and  _249
REMARK  106  A    between atoms: _248  and  _251
REMARK  107  A    between atoms: _251  and  _252
REMARK  108  A    between atoms: _255  and  _257
REMARK  109  A    between atoms: _257  and  _258
REMARK  110  A    between atoms: _257  and  _260
REMARK  111  A    between atoms: _260  and  _261
REMARK  112  A    between atoms: _264  and  _266
REMARK  113  A    between atoms: _266  and  _267
REMARK  114  A    between atoms: _266  and  _269
REMARK  115  A    between atoms: _269  and  _270
REMARK  116  A    between atoms: _270  and  _271
REMARK  117  A    between atoms: _273  and  _275
REMARK  118  A    between atoms: _275  and  _276
REMARK  119  A    between atoms: _275  and  _278
REMARK  120  A    between atoms: _278  and  _279
REMARK  121  A    between atoms: _285  and  _287
REMARK  122  A    between atoms: _287  and  _288
REMARK  123  A    between atoms: _287  and  _290
REMARK  124  A    between atoms: _292  and  _294
REMARK  125  A    between atoms: _294  and  _295
REMARK  126  A    between atoms: _298  and  _300
REMARK  127  A    between atoms: _300  and  _301
REMARK  128  A    between atoms: _303  and  _305
REMARK  129  A    between atoms: _305  and  _306
REMARK  130  A    between atoms: _305  and  _308
REMARK  131  A    between atoms: _308  and  _309
REMARK  132  A    between atoms: _309  and  _310
REMARK  133  A    between atoms: _313  and  _315
REMARK  134  A    between atoms: _315  and  _316
REMARK  135  A    between atoms: _315  and  _318
REMARK  136  A    between atoms: _318  and  _319
REMARK  137  A    between atoms: _322  and  _324
REMARK  138  A    between atoms: _324  and  _325
REMARK  139  A    between atoms: _328  and  _330
REMARK  140  A    between atoms: _330  and  _331
REMARK  141  A    between atoms: _330  and  _333
REMARK  142  A    between atoms: _333  and  _334
REMARK  143  A    between atoms: _334  and  _457
REMARK  144  A    between atoms: _335  and  _337
REMARK  145  A    between atoms: _337  and  _338
REMARK  146  A    between atoms: _337  and  _340
REMARK  147  A    between atoms: _340  and  _341
REMARK  148  A    between atoms: _341  and  _342
REMARK  149  A    between atoms: _347  and  _349
REMARK  150  A    between atoms: _349  and  _350
REMARK  151  A    between atoms: _352  and  _354
REMARK  152  A    between atoms: _354  and  _355
REMARK  153  A    between atoms: _354  and  _357
REMARK  154  A    between atoms: _357  and  _358
REMARK  155  A    between atoms: _361  and  _363
REMARK  156  A    between atoms: _363  and  _364
REMARK  157  A    between atoms: _363  and  _366
REMARK  158  A    between atoms: _366  and  _367
REMARK  159  A    between atoms: _369  and  _371
REMARK  160  A    between atoms: _371  and  _372
REMARK  161  A    between atoms: _374  and  _376
REMARK  162  A    between atoms: _376  and  _377
REMARK  163  A    between atoms: _379  and  _381
REMARK  164  A    between atoms: _381  and  _382
REMARK  165  A    between atoms: _381  and  _384
REMARK  166  A    between atoms: _384  and  _385
REMARK  167  A    between atoms: _390  and  _392
REMARK  168  A    between atoms: _392  and  _393
REMARK  169  A    between atoms: _392  and  _395
REMARK  170  A    between atoms: _395  and  _396
REMARK  171  A    between atoms: _399  and  _401
REMARK  172  A    between atoms: _401  and  _402
REMARK  173  A    between atoms: _401  and  _404
REMARK  174  A    between atoms: _407  and  _409
REMARK  175  A    between atoms: _409  and  _410
REMARK  176  A    between atoms: _409  and  _412
REMARK  177  A    between atoms: _412  and  _413
REMARK  178  A    between atoms: _415  and  _417
REMARK  179  A    between atoms: _417  and  _418
REMARK  180  A    between atoms: _417  and  _420
REMARK  181  A    between atoms: _420  and  _421
REMARK  182  A    between atoms: _431  and  _433
REMARK  183  A    between atoms: _433  and  _434
REMARK  184  A    between atoms: _436  and  _438
REMARK  185  A    between atoms: _438  and  _439
REMARK  186  A    between atoms: _438  and  _441
REMARK  187  A    between atoms: _441  and  _442
REMARK  188  A    between atoms: _442  and  _443
REMARK  189  A    between atoms: _446  and  _448
REMARK  190  A    between atoms: _448  and  _449
REMARK  191  A    between atoms: _451  and  _453
REMARK  192  A    between atoms: _453  and  _454
REMARK  193  A    between atoms: _453  and  _456
REMARK  194  A    between atoms: _456  and  _457
REMARK  195  A    between atoms: _458  and  _460
REMARK  196  A    between atoms: _460  and  _461
REMARK  197  A    between atoms: _464  and  _466
REMARK  198  A    between atoms: _466  and  _467
REMARK  199  A    between atoms: _466  and  _469
REMARK  200  A    between atoms: _469  and  _470
REMARK  201  A    between atoms: _470  and  _471
REMARK  202  A    between atoms: _471  and  _472
REMARK  203  A    between atoms: _481  and  _483
REMARK  204  A    between atoms: _483  and  _484
REMARK  205  A    between atoms: _483  and  _486
REMARK  206  A    between atoms: _486  and  _487
REMARK  207  A    between atoms: _487  and  _488
REMARK  208  A    between atoms: _488  and  _489
REMARK  209  A    between atoms: _489  and  _490
REMARK  210  A    between atoms: _494  and  _496
REMARK  211  A    between atoms: _496  and  _497
REMARK  212  A    between atoms: _496  and  _499
REMARK  213  A    between atoms: _499  and  _500
REMARK  214  A    between atoms: _505  and  _506
REMARK  215  A    between atoms: _508  and  _510
REMARK  216  A    between atoms: _510  and  _511
REMARK  217  A    between atoms: _513  and  _515
REMARK  218  A    between atoms: _515  and  _516
REMARK  219  A    between atoms: _515  and  _518
REMARK  220  A    between atoms: _518  and  _519
REMARK  221  A    between atoms: _522  and  _524
REMARK  222  A    between atoms: _524  and  _525
REMARK  223  A    between atoms: _524  and  _527
REMARK  224  A    between atoms: _527  and  _528
REMARK  225  A    between atoms: _533  and  _534
REMARK  226  A    between atoms: _536  and  _538
REMARK  227  A    between atoms: _538  and  _539
REMARK  228  A    between atoms: _538  and  _541
REMARK  229  A    between atoms: _541  and  _542
REMARK                            x       y       z     vdW  Elec       q    Type
REMARK                         _______ _______ _______ _____ _____    ______ ____
ROOT
ATOM      1  CA  HIS A   3      14.170  75.515   7.814  0.00  0.00    +0.155 C 
ENDROOT
BRANCH   1   2
ATOM      2  C   HIS A   3      13.089  74.793   7.018  0.00  0.00    +0.241 C 
ATOM      3  N   GLU A   4      12.117  74.188   7.697  0.00  0.00    -0.297 N 
ATOM      4  H   GLU A   4      12.108  74.214   8.737  0.00  0.00    +0.150 HD
ATOM      5  O   HIS A   3      13.139  74.767   5.788  0.00  0.00    -0.273 OA
BRANCH   3   6
ATOM      6  CA  GLU A   4      11.068  73.490   6.972  0.00  0.00    +0.149 C 
BRANCH   6   7
ATOM      7  C   GLU A   4      10.448  74.478   5.981  0.00  0.00    +0.241 C 
ATOM      8  O   GLU A   4      10.122  75.610   6.339  0.00  0.00    -0.273 OA
ATOM      9  N   LYS A   5      10.301  74.068   4.735  0.00  0.00    -0.297 N 
ATOM     10  H   LYS A   5      10.604  73.110   4.465  0.00  0.00    +0.150 HD
BRANCH   9  11
ATOM     11  CA  LYS A   5       9.715  74.953   3.735  0.00  0.00    +0.149 C 
BRANCH  11  12
ATOM     12  C   LYS A   5      10.459  76.284   3.535  0.00  0.00    +0.241 C 
ATOM     13  N   GLY A   6      11.702  76.359   4.021  0.00  0.00    -0.296 N 
ATOM     14  H   GLY A   6      12.100  75.544   4.529  0.00  0.00    +0.150 HD
ATOM     15  O   LYS A   5       9.905  77.224   2.938  0.00  0.00    -0.273 OA
BRANCH  13  16
ATOM     16  CA  GLY A   6      12.511  77.561   3.853  0.00  0.00    +0.163 C 
BRANCH  16  17
ATOM     17  C   GLY A   6      13.447  77.392   2.663  0.00  0.00    +0.229 C 
ATOM     18  O   GLY A   6      13.372  76.392   1.954  0.00  0.00    -0.286 OA
ENDBRANCH  16  17
ENDBRANCH  13  16
ENDBRANCH  11  12
BRANCH  11  19
ATOM     19  CB  LYS A   5       8.246  75.217   4.090  0.00  0.00    +0.029 C 
BRANCH  19  20
ATOM     20  CG  LYS A   5       7.400  73.956   4.004  0.00  0.00    +0.000 C 
BRANCH  20  21
ATOM     21  CD  LYS A   5       5.974  74.170   4.463  0.00  0.00    -0.024 C 
BRANCH  21  22
ATOM     22  CE  LYS A   5       5.286  72.829   4.660  0.00  0.00    -0.086 C 
BRANCH  22  23
ATOM     23  NZ  LYS A   5       3.891  72.975   5.132  0.00  0.00    +0.380 N 
ATOM     24  HZ1 LYS A   5       3.885  73.477   6.043  0.00  0.00    -0.089 HD
ATOM     25  HZ2 LYS A   5       3.466  72.033   5.251  0.00  0.00    -0.089 HD
ATOM     26  HZ3 LYS A   5       3.345  73.517   4.433  0.00  0.00    -0.089 HD
ENDBRANCH  22  23
ENDBRANCH  21  22
ENDBRANCH  20  21
ENDBRANCH  19  20
ENDBRANCH  11  19
ENDBRANCH   9  11
ENDBRANCH   6   7
BRANCH   6  27
ATOM     27  CB  GLU A   4      10.002  72.982   7.958  0.00  0.00    +0.041 C 
BRANCH  27  28
ATOM     28  CG  GLU A   4       8.924  72.157   7.315  0.00  0.00    +0.116 C 
BRANCH  28  29
ATOM     29  CD  GLU A   4       7.919  71.636   8.336  0.00  0.00    +0.365 C 
ATOM     30  OE2 GLU A   4       8.344  71.209   9.442  0.00  0.00    -0.246 OA
ATOM     31  OE1 GLU A   4       6.707  71.654   8.015  0.00  0.00    -0.246 OA
ENDBRANCH  28  29
ENDBRANCH  27  28
ENDBRANCH   6  27
ENDBRANCH   3   6
ENDBRANCH   1   2
BRANCH   1  34
ATOM     32  C   THR A   2      16.590  75.654   7.476  0.00  0.00    +0.243 C 
ATOM     33  O   THR A   2      16.807  75.900   8.663  0.00  0.00    -0.273 OA
ATOM     34  N   HIS A   3      15.373  75.495   6.981  0.00  0.00    -0.297 N 
ATOM     35  H   HIS A   3      15.267  75.350   5.957  0.00  0.00    +0.150 HD
BRANCH  32  36
ATOM     36  CA  THR A   2      17.730  75.522   6.470  0.00  0.00    +0.176 C 
BRANCH  36  39
ATOM     37  C   ARG A   1      17.119  73.921   4.724  0.00  0.00    +0.238 C 
ATOM     38  O   ARG A   1      17.452  72.939   5.419  0.00  0.00    -0.274 OA
ATOM     39  N   THR A   2      17.209  75.185   5.154  0.00  0.00    -0.295 N 
ATOM     40  H   THR A   2      16.896  75.953   4.526  0.00  0.00    +0.150 HD
BRANCH  37  41
ATOM     41  CA  ARG A   1      16.562  73.737   3.316  0.00  0.00    +0.145 C 
BRANCH  41  42
ATOM     42  N   ARG A   1      17.222  72.643   2.604  0.00  0.00    -0.238 NA
ATOM     43  H   ARG A   1      16.638  71.894   2.180  0.00  0.00    +0.142 HD
ENDBRANCH  41  42
BRANCH  41  44
ATOM     44  CB  ARG A   1      15.060  73.471   3.395  0.00  0.00    +0.030 C 
BRANCH  44  45
ATOM     45  CG  ARG A   1      14.357  73.370   2.071  0.00  0.00    +0.045 C 
BRANCH  45  46
ATOM     46  CD  ARG A   1      12.875  73.139   2.302  0.00  0.00    +0.174 C 
BRANCH  46  47
ATOM     47  NE  ARG A   1      12.135  72.793   1.096  0.00  0.00    -0.265 N 
ATOM     48  HE  ARG A   1      11.984  71.784   0.894  0.00  0.00    +0.259 HD
ATOM     49  CZ  ARG A   1      11.640  73.674   0.237  0.00  0.00    +0.342 C 
ATOM     50  NH2 ARG A   1      11.821  74.974   0.443  0.00  0.00    -0.292 N 
ATOM     51 HH21 ARG A   1      12.350  75.300   1.277  0.00  0.00    +0.255 HD
ATOM     52 HH22 ARG A   1      11.433  75.666  -0.230  0.00  0.00    +0.255 HD
ATOM     53  NH1 ARG A   1      10.920  73.259  -0.806  0.00  0.00    -0.292 N 
ATOM     54 HH11 ARG A   1      10.746  72.243  -0.947  0.00  0.00    +0.255 HD
ATOM     55 HH12 ARG A   1      10.533  73.951  -1.479  0.00  0.00    +0.255 HD
ENDBRANCH  46  47
ENDBRANCH  45  46
ENDBRANCH  44  45
ENDBRANCH  41  44
ENDBRANCH  37  41
ENDBRANCH  36  39
BRANCH  36  56
ATOM     56  CB  THR A   2      18.570  76.841   6.410  0.00  0.00    +0.137 C 
ATOM     57  CG2 THR A   2      19.708  76.695   5.407  0.00  0.00    +0.034 C 
BRANCH  56  58
ATOM     58  OG1 THR A   2      17.740  77.909   5.964  0.00  0.00    -0.382 OA
ATOM     59  HG1 THR A   2      18.271  78.744   5.926  0.00  0.00    +0.210 HD
ENDBRANCH  56  58
ENDBRANCH  36  56
ENDBRANCH  32  36
ENDBRANCH   1  34
BRANCH   1  60
ATOM     60  CB  HIS A   3      13.731  76.952   8.135  0.00  0.00    +0.076 C 
BRANCH  60  61
ATOM     61  CG  HIS A   3      12.444  77.024   8.901  0.00  0.00    +0.082 A 
ATOM     62  CD2 HIS A   3      12.199  77.028  10.232  0.00  0.00    +0.115 A 
ATOM     63  NE2 HIS A   3      10.835  76.992  10.396  0.00  0.00    -0.221 NA
ATOM     64  CE1 HIS A   3      10.260  76.976   9.206  0.00  0.00    +0.199 A 
ATOM     65  ND1 HIS A   3      11.209  76.998   8.286  0.00  0.00    -0.227 NA
ENDBRANCH  60  61
ENDBRANCH   1  60
TORSDOF 28
REMARK  Name = ../refined-set-2016/2xbw/2xbw_pocket.pdb
REMARK  229 active torsions:
REMARK  status: ('A' for Active; 'I' for Inactive)
REMARK    1  A    between atoms: _1  and  _5
REMARK    2  A    between atoms: _5  and  _6
REMARK    3  A    between atoms: _5  and  _8
REMARK    4  A    between atoms: _8  and  _9
REMARK    5  A    between atoms: _12  and  _14
REMARK    6  A    between atoms: _14  and  _15
REMARK    7  A    between atoms: _14  and  _17
REMARK    8  A    between atoms: _20  and  _22
REMARK    9  A    between atoms: _22  and  _23
REMARK   10  A    between atoms: _22  and  _25
REMARK   11  A    between atoms: _25  and  _26
REMARK   12  A    between atoms: _31  and  _33
REMARK   13  A    between atoms: _33  and  _34
REMARK   14  A    between atoms: _33  and  _36
REMARK   15  A    between atoms: _36  and  _37
REMARK   16  A    between atoms: _37  and  _38
REMARK   17  A    between atoms: _43  and  _45
REMARK   18  A    between atoms: _45  and  _46
REMARK   19  A    between atoms: _45  and  _48
REMARK   20  A    between atoms: _48  and  _49
REMARK   21  A    between atoms: _55  and  _57
REMARK   22  A    between atoms: _57  and  _58
REMARK   23  A    between atoms: _57  and  _60
REMARK   24  A    between atoms: _60  and  _61
REMARK   25  A    between atoms: _64  and  _66
REMARK   26  A    between atoms: _66  and  _67
REMARK   27  A    between atoms: _66  and  _69
REMARK   28  A    between atoms: _69  and  _70
REMARK   29  A    between atoms: _70  and  _71
REMARK   30  A    between atoms: _71  and  _72
REMARK   31  A    between atoms: _72  and  _73
REMARK   32  A    between atoms: _77  and  _79
REMARK   33  A    between atoms: _79  and  _80
REMARK   34  A    between atoms: _79  and  _82
REMARK   35  A    between atoms: _82  and  _83
REMARK   36  A    between atoms: _83  and  _84
REMARK   37  A    between atoms: _87  and  _89
REMARK   38  A    between atoms: _89  and  _90
REMARK   39  A    between atoms: _89  and  _92
REMARK   40  A    between atoms: _92  and  _93
REMARK   41  A    between atoms: _96  and  _98
REMARK   42  A    between atoms: _98  and  _99
REMARK   43  A    between atoms: _98  and  _101
REMARK   44  A    between atoms: _101  and  _102
REMARK   45  A    between atoms: _107  and  _108
REMARK   46  A    between atoms: _110  and  _112
REMARK   47  A    between atoms: _112  and  _113
REMARK   48  A    between atoms: _112  and  _115
REMARK   49  A    between atoms: _115  and  _116
REMARK   50  A    between atoms: _119  and  _121
REMARK   51  A    between atoms: _121  and  _122
REMARK   52  A    between atoms: _121  and  _124
REMARK   53  A    between atoms: _124  and  _125
REMARK   54  A    between atoms: _128  and  _130
REMARK   55  A    between atoms: _130  and  _131
REMARK   56  A    between atoms: _130  and  _133
REMARK   57  A    between atoms: _136  and  _138
REMARK   58  A    between atoms: _138  and  _139
REMARK   59  A    between atoms: _138  and  _141
REMARK   60  A    between atoms: _141  and  _142
REMARK   61  A    between atoms: _142  and  _143
REMARK   62  A    between atoms: _143  and  _144
REMARK   63  A    between atoms: _153  and  _155
REMARK   64  A    between atoms: _155  and  _156
REMARK   65  A    between atoms: _155  and  _158
REMARK   66  A    between atoms: _158  and  _159
REMARK   67  A    between atoms: _162  and  _164
REMARK   68  A    between atoms: _164  and  _165
REMARK   69  A    between atoms: _164  and  _167
REMARK   70  A    between atoms: _167  and  _168
REMARK   71  A    between atoms: _173  and  _175
REMARK   72  A    between atoms: _175  and  _176
REMARK   73  A    between atoms: _175  and  _178
REMARK   74  A    between atoms: _178  and  _179
REMARK   75  A    between atoms: _179  and  _180
REMARK   76  A    between atoms: _183  and  _185
REMARK   77  A    between atoms: _185  and  _186
REMARK   78  A    between atoms: _185  and  _188
REMARK   79  A    between atoms: _188  and  _189
REMARK   80  A    between atoms: _189  and  _190
REMARK   81  A    between atoms: _190  and  _191
REMARK   82  A    between atoms: _191  and  _192
REMARK   83  A    between atoms: _196  and  _198
REMARK   84  A    between atoms: _198  and  _199
REMARK   85  A    between atoms: _201  and  _203
REMARK   86  A    between atoms: _203  and  _204
REMARK   87  A    between atoms: _203  and  _206
REMARK   88  A    between atoms: _209  and  _211
REMARK   89  A    between atoms: _211  and  _212
REMARK   90  A    between atoms: _211  and  _214
REMARK   91  A    between atoms: _214  and  _215
REMARK   92  A    between atoms: _217  and  _219
REMARK   93  A    between atoms: _219  and  _220
REMARK   94  A    between atoms: _219  and  _222
REMARK   95  A    between atoms: _222  and  _223
REMARK   96  A    between atoms: _225  and  _227
REMARK   97  A    between atoms: _227  and  _228
REMARK   98  A    between atoms: _227  and  _230
REMARK   99  A    between atoms: _230  and  _231
REMARK  100  A    between atoms: _237  and  _239
REMARK  101  A    between atoms: _239  and  _240
REMARK  102  A    between atoms: _239  and  _242
REMARK  103  A    between atoms: _242  and  _243
REMARK  104  A    between atoms: _246  and  _248
REMARK  105  A    between atoms: _248  and  _249
REMARK  106  A    between atoms: _248  and  _251
REMARK  107  A    between atoms: _251  and  _252
REMARK  108  A    between atoms: _255  and  _257
REMARK  109  A    between atoms: _257  and  _258
REMARK  110  A    between atoms: _257  and  _260
REMARK  111  A    between atoms: _260  and  _261
REMARK  112  A    between atoms: _264  and  _266
REMARK  113  A    between atoms: _266  and  _267
REMARK  114  A    between atoms: _266  and  _269
REMARK  115  A    between atoms: _269  and  _270
REMARK  116  A    between atoms: _270  and  _271
REMARK  117  A    between atoms: _273  and  _275
REMARK  118  A    between atoms: _275  and  _276
REMARK  119  A    between atoms: _275  and  _278
REMARK  120  A    between atoms: _278  and  _279
REMARK  121  A    between atoms: _285  and  _287
REMARK  122  A    between atoms: _287  and  _288
REMARK  123  A    between atoms: _287  and  _290
REMARK  124  A    between atoms: _292  and  _294
REMARK  125  A    between atoms: _294  and  _295
REMARK  126  A    between atoms: _298  and  _300
REMARK  127  A    between atoms: _300  and  _301
REMARK  128  A    between atoms: _303  and  _305
REMARK  129  A    between atoms: _305  and  _306
REMARK  130  A    between atoms: _305  and  _308
REMARK  131  A    between atoms: _308  and  _309
REMARK  132  A    between atoms: _309  and  _310
REMARK  133  A    between atoms: _313  and  _315
REMARK  134  A    between atoms: _315  and  _316
REMARK  135  A    between atoms: _315  and  _318
REMARK  136  A    between atoms: _318  and  _319
REMARK  137  A    between atoms: _322  and  _324
REMARK  138  A    between atoms: _324  and  _325
REMARK  139  A    between atoms: _328  and  _330
REMARK  140  A    between atoms: _330  and  _331
REMARK  141  A    between atoms: _330  and  _333
REMARK  142  A    between atoms: _333  and  _334
REMARK  143  A    between atoms: _334  and  _457
REMARK  144  A    between atoms: _335  and  _337
REMARK  145  A    between atoms: _337  and  _338
REMARK  146  A    between atoms: _337  and  _340
REMARK  147  A    between atoms: _340  and  _341
REMARK  148  A    between atoms: _341  and  _342
REMARK  149  A    between atoms: _347  and  _349
REMARK  150  A    between atoms: _349  and  _350
REMARK  151  A    between atoms: _352  and  _354
REMARK  152  A    between atoms: _354  and  _355
REMARK  153  A    between atoms: _354  and  _357
REMARK  154  A    between atoms: _357  and  _358
REMARK  155  A    between atoms: _361  and  _363
REMARK  156  A    between atoms: _363  and  _364
REMARK  157  A    between atoms: _363  and  _366
REMARK  158  A    between atoms: _366  and  _367
REMARK  159  A    between atoms: _369  and  _371
REMARK  160  A    between atoms: _371  and  _372
REMARK  161  A    between atoms: _374  and  _376
REMARK  162  A    between atoms: _376  and  _377
REMARK  163  A    between atoms: _379  and  _381
REMARK  164  A    between atoms: _381  and  _382
REMARK  165  A    between atoms: _381  and  _384
REMARK  166  A    between atoms: _384  and  _385
REMARK  167  A    between atoms: _390  and  _392
REMARK  168  A    between atoms: _392  and  _393
REMARK  169  A    between atoms: _392  and  _395
REMARK  170  A    between atoms: _395  and  _396
REMARK  171  A    between atoms: _399  and  _401
REMARK  172  A    between atoms: _401  and  _402
REMARK  173  A    between atoms: _401  and  _404
REMARK  174  A    between atoms: _407  and  _409
REMARK  175  A    between atoms: _409  and  _410
REMARK  176  A    between atoms: _409  and  _412
REMARK  177  A    between atoms: _412  and  _413
REMARK  178  A    between atoms: _415  and  _417
REMARK  179  A    between atoms: _417  and  _418
REMARK  180  A    between atoms: _417  and  _420
REMARK  181  A    between atoms: _420  and  _421
REMARK  182  A    between atoms: _431  and  _433
REMARK  183  A    between atoms: _433  and  _434
REMARK  184  A    between atoms: _436  and  _438
REMARK  185  A    between atoms: _438  and  _439
REMARK  186  A    between atoms: _438  and  _441
REMARK  187  A    between atoms: _441  and  _442
REMARK  188  A    between atoms: _442  and  _443
REMARK  189  A    between atoms: _446  and  _448
REMARK  190  A    between atoms: _448  and  _449
REMARK  191  A    between atoms: _451  and  _453
REMARK  192  A    between atoms: _453  and  _454
REMARK  193  A    between atoms: _453  and  _456
REMARK  194  A    between atoms: _456  and  _457
REMARK  195  A    between atoms: _458  and  _460
REMARK  196  A    between atoms: _460  and  _461
REMARK  197  A    between atoms: _464  and  _466
REMARK  198  A    between atoms: _466  and  _467
REMARK  199  A    between atoms: _466  and  _469
REMARK  200  A    between atoms: _469  and  _470
REMARK  201  A    between atoms: _470  and  _471
REMARK  202  A    between atoms: _471  and  _472
REMARK  203  A    between atoms: _481  and  _483
REMARK  204  A    between atoms: _483  and  _484
REMARK  205  A    between atoms: _483  and  _486
REMARK  206  A    between atoms: _486  and  _487
REMARK  207  A    between atoms: _487  and  _488
REMARK  208  A    between atoms: _488  and  _489
REMARK  209  A    between atoms: _489  and  _490
REMARK  210  A    between atoms: _494  and  _496
REMARK  211  A    between atoms: _496  and  _497
REMARK  212  A    between atoms: _496  and  _499
REMARK  213  A    between atoms: _499  and  _500
REMARK  214  A    between atoms: _505  and  _506
REMARK  215  A    between atoms: _508  and  _510
REMARK  216  A    between atoms: _510  and  _511
REMARK  217  A    between atoms: _513  and  _515
REMARK  218  A    between atoms: _515  and  _516
REMARK  219  A    between atoms: _515  and  _518
REMARK  220  A    between atoms: _518  and  _519
REMARK  221  A    between atoms: _522  and  _524
REMARK  222  A    between atoms: _524  and  _525
REMARK  223  A    between atoms: _524  and  _527
REMARK  224  A    between atoms: _527  and  _528
REMARK  225  A    between atoms: _533  and  _534
REMARK  226  A    between atoms: _536  and  _538
REMARK  227  A    between atoms: _538  and  _539
REMARK  228  A    between atoms: _538  and  _541
REMARK  229  A    between atoms: _541  and  _542
REMARK                            x       y       z     vdW  Elec       q    Type
REMARK                         _______ _______ _______ _____ _____    ______ ____
ROOT
ATOM      1  CA  VAL A   1      22.789  63.485  14.806  0.00  0.00    +0.133 C 
ENDROOT
BRANCH   1   2
ATOM      2  CB  VAL A   1      21.821  63.292  13.589  0.00  0.00    +0.023 C 
ATOM      3  CG2 VAL A   1      21.340  64.674  13.039  0.00  0.00    +0.002 C 
ATOM      4  CG1 VAL A   1      22.500  62.501  12.511  0.00  0.00    +0.002 C 
ENDBRANCH   1   2
BRANCH   1   5
ATOM      5  N   VAL A   1      24.109  63.958  14.397  0.00  0.00    -0.239 NA
ATOM      6  H   VAL A   1      24.749  63.331  13.868  0.00  0.00    +0.142 HD
ENDBRANCH   1   5
BRANCH   1   7
ATOM      7  C   VAL A   1      22.880  62.174  15.549  0.00  0.00    +0.224 C 
ATOM      8  O   VAL A   1      23.508  61.218  15.096  0.00  0.00    -0.287 OA
ENDBRANCH   1   7
TORSDOF 3
REMARK  Name = ../refined-set-2016/2xbw/2xbw_pocket.pdb
REMARK  229 active torsions:
REMARK  status: ('A' for Active; 'I' for Inactive)
REMARK    1  A    between atoms: _1  and  _5
REMARK    2  A    between atoms: _5  and  _6
REMARK    3  A    between atoms: _5  and  _8
REMARK    4  A    between atoms: _8  and  _9
REMARK    5  A    between atoms: _12  and  _14
REMARK    6  A    between atoms: _14  and  _15
REMARK    7  A    between atoms: _14  and  _17
REMARK    8  A    between atoms: _20  and  _22
REMARK    9  A    between atoms: _22  and  _23
REMARK   10  A    between atoms: _22  and  _25
REMARK   11  A    between atoms: _25  and  _26
REMARK   12  A    between atoms: _31  and  _33
REMARK   13  A    between atoms: _33  and  _34
REMARK   14  A    between atoms: _33  and  _36
REMARK   15  A    between atoms: _36  and  _37
REMARK   16  A    between atoms: _37  and  _38
REMARK   17  A    between atoms: _43  and  _45
REMARK   18  A    between atoms: _45  and  _46
REMARK   19  A    between atoms: _45  and  _48
REMARK   20  A    between atoms: _48  and  _49
REMARK   21  A    between atoms: _55  and  _57
REMARK   22  A    between atoms: _57  and  _58
REMARK   23  A    between atoms: _57  and  _60
REMARK   24  A    between atoms: _60  and  _61
REMARK   25  A    between atoms: _64  and  _66
REMARK   26  A    between atoms: _66  and  _67
REMARK   27  A    between atoms: _66  and  _69
REMARK   28  A    between atoms: _69  and  _70
REMARK   29  A    between atoms: _70  and  _71
REMARK   30  A    between atoms: _71  and  _72
REMARK   31  A    between atoms: _72  and  _73
REMARK   32  A    between atoms: _77  and  _79
REMARK   33  A    between atoms: _79  and  _80
REMARK   34  A    between atoms: _79  and  _82
REMARK   35  A    between atoms: _82  and  _83
REMARK   36  A    between atoms: _83  and  _84
REMARK   37  A    between atoms: _87  and  _89
REMARK   38  A    between atoms: _89  and  _90
REMARK   39  A    between atoms: _89  and  _92
REMARK   40  A    between atoms: _92  and  _93
REMARK   41  A    between atoms: _96  and  _98
REMARK   42  A    between atoms: _98  and  _99
REMARK   43  A    between atoms: _98  and  _101
REMARK   44  A    between atoms: _101  and  _102
REMARK   45  A    between atoms: _107  and  _108
REMARK   46  A    between atoms: _110  and  _112
REMARK   47  A    between atoms: _112  and  _113
REMARK   48  A    between atoms: _112  and  _115
REMARK   49  A    between atoms: _115  and  _116
REMARK   50  A    between atoms: _119  and  _121
REMARK   51  A    between atoms: _121  and  _122
REMARK   52  A    between atoms: _121  and  _124
REMARK   53  A    between atoms: _124  and  _125
REMARK   54  A    between atoms: _128  and  _130
REMARK   55  A    between atoms: _130  and  _131
REMARK   56  A    between atoms: _130  and  _133
REMARK   57  A    between atoms: _136  and  _138
REMARK   58  A    between atoms: _138  and  _139
REMARK   59  A    between atoms: _138  and  _141
REMARK   60  A    between atoms: _141  and  _142
REMARK   61  A    between atoms: _142  and  _143
REMARK   62  A    between atoms: _143  and  _144
REMARK   63  A    between atoms: _153  and  _155
REMARK   64  A    between atoms: _155  and  _156
REMARK   65  A    between atoms: _155  and  _158
REMARK   66  A    between atoms: _158  and  _159
REMARK   67  A    between atoms: _162  and  _164
REMARK   68  A    between atoms: _164  and  _165
REMARK   69  A    between atoms: _164  and  _167
REMARK   70  A    between atoms: _167  and  _168
REMARK   71  A    between atoms: _173  and  _175
REMARK   72  A    between atoms: _175  and  _176
REMARK   73  A    between atoms: _175  and  _178
REMARK   74  A    between atoms: _178  and  _179
REMARK   75  A    between atoms: _179  and  _180
REMARK   76  A    between atoms: _183  and  _185
REMARK   77  A    between atoms: _185  and  _186
REMARK   78  A    between atoms: _185  and  _188
REMARK   79  A    between atoms: _188  and  _189
REMARK   80  A    between atoms: _189  and  _190
REMARK   81  A    between atoms: _190  and  _191
REMARK   82  A    between atoms: _191  and  _192
REMARK   83  A    between atoms: _196  and  _198
REMARK   84  A    between atoms: _198  and  _199
REMARK   85  A    between atoms: _201  and  _203
REMARK   86  A    between atoms: _203  and  _204
REMARK   87  A    between atoms: _203  and  _206
REMARK   88  A    between atoms: _209  and  _211
REMARK   89  A    between atoms: _211  and  _212
REMARK   90  A    between atoms: _211  and  _214
REMARK   91  A    between atoms: _214  and  _215
REMARK   92  A    between atoms: _217  and  _219
REMARK   93  A    between atoms: _219  and  _220
REMARK   94  A    between atoms: _219  and  _222
REMARK   95  A    between atoms: _222  and  _223
REMARK   96  A    between atoms: _225  and  _227
REMARK   97  A    between atoms: _227  and  _228
REMARK   98  A    between atoms: _227  and  _230
REMARK   99  A    between atoms: _230  and  _231
REMARK  100  A    between atoms: _237  and  _239
REMARK  101  A    between atoms: _239  and  _240
REMARK  102  A    between atoms: _239  and  _242
REMARK  103  A    between atoms: _242  and  _243
REMARK  104  A    between atoms: _246  and  _248
REMARK  105  A    between atoms: _248  and  _249
REMARK  106  A    between atoms: _248  and  _251
REMARK  107  A    between atoms: _251  and  _252
REMARK  108  A    between atoms: _255  and  _257
REMARK  109  A    between atoms: _257  and  _258
REMARK  110  A    between atoms: _257  and  _260
REMARK  111  A    between atoms: _260  and  _261
REMARK  112  A    between atoms: _264  and  _266
REMARK  113  A    between atoms: _266  and  _267
REMARK  114  A    between atoms: _266  and  _269
REMARK  115  A    between atoms: _269  and  _270
REMARK  116  A    between atoms: _270  and  _271
REMARK  117  A    between atoms: _273  and  _275
REMARK  118  A    between atoms: _275  and  _276
REMARK  119  A    between atoms: _275  and  _278
REMARK  120  A    between atoms: _278  and  _279
REMARK  121  A    between atoms: _285  and  _287
REMARK  122  A    between atoms: _287  and  _288
REMARK  123  A    between atoms: _287  and  _290
REMARK  124  A    between atoms: _292  and  _294
REMARK  125  A    between atoms: _294  and  _295
REMARK  126  A    between atoms: _298  and  _300
REMARK  127  A    between atoms: _300  and  _301
REMARK  128  A    between atoms: _303  and  _305
REMARK  129  A    between atoms: _305  and  _306
REMARK  130  A    between atoms: _305  and  _308
REMARK  131  A    between atoms: _308  and  _309
REMARK  132  A    between atoms: _309  and  _310
REMARK  133  A    between atoms: _313  and  _315
REMARK  134  A    between atoms: _315  and  _316
REMARK  135  A    between atoms: _315  and  _318
REMARK  136  A    between atoms: _318  and  _319
REMARK  137  A    between atoms: _322  and  _324
REMARK  138  A    between atoms: _324  and  _325
REMARK  139  A    between atoms: _328  and  _330
REMARK  140  A    between atoms: _330  and  _331
REMARK  141  A    between atoms: _330  and  _333
REMARK  142  A    between atoms: _333  and  _334
REMARK  143  A    between atoms: _334  and  _457
REMARK  144  A    between atoms: _335  and  _337
REMARK  145  A    between atoms: _337  and  _338
REMARK  146  A    between atoms: _337  and  _340
REMARK  147  A    between atoms: _340  and  _341
REMARK  148  A    between atoms: _341  and  _342
REMARK  149  A    between atoms: _347  and  _349
REMARK  150  A    between atoms: _349  and  _350
REMARK  151  A    between atoms: _352  and  _354
REMARK  152  A    between atoms: _354  and  _355
REMARK  153  A    between atoms: _354  and  _357
REMARK  154  A    between atoms: _357  and  _358
REMARK  155  A    between atoms: _361  and  _363
REMARK  156  A    between atoms: _363  and  _364
REMARK  157  A    between atoms: _363  and  _366
REMARK  158  A    between atoms: _366  and  _367
REMARK  159  A    between atoms: _369  and  _371
REMARK  160  A    between atoms: _371  and  _372
REMARK  161  A    between atoms: _374  and  _376
REMARK  162  A    between atoms: _376  and  _377
REMARK  163  A    between atoms: _379  and  _381
REMARK  164  A    between atoms: _381  and  _382
REMARK  165  A    between atoms: _381  and  _384
REMARK  166  A    between atoms: _384  and  _385
REMARK  167  A    between atoms: _390  and  _392
REMARK  168  A    between atoms: _392  and  _393
REMARK  169  A    between atoms: _392  and  _395
REMARK  170  A    between atoms: _395  and  _396
REMARK  171  A    between atoms: _399  and  _401
REMARK  172  A    between atoms: _401  and  _402
REMARK  173  A    between atoms: _401  and  _404
REMARK  174  A    between atoms: _407  and  _409
REMARK  175  A    between atoms: _409  and  _410
REMARK  176  A    between atoms: _409  and  _412
REMARK  177  A    between atoms: _412  and  _413
REMARK  178  A    between atoms: _415  and  _417
REMARK  179  A    between atoms: _417  and  _418
REMARK  180  A    between atoms: _417  and  _420
REMARK  181  A    between atoms: _420  and  _421
REMARK  182  A    between atoms: _431  and  _433
REMARK  183  A    between atoms: _433  and  _434
REMARK  184  A    between atoms: _436  and  _438
REMARK  185  A    between atoms: _438  and  _439
REMARK  186  A    between atoms: _438  and  _441
REMARK  187  A    between atoms: _441  and  _442
REMARK  188  A    between atoms: _442  and  _443
REMARK  189  A    between atoms: _446  and  _448
REMARK  190  A    between atoms: _448  and  _449
REMARK  191  A    between atoms: _451  and  _453
REMARK  192  A    between atoms: _453  and  _454
REMARK  193  A    between atoms: _453  and  _456
REMARK  194  A    between atoms: _456  and  _457
REMARK  195  A    between atoms: _458  and  _460
REMARK  196  A    between atoms: _460  and  _461
REMARK  197  A    between atoms: _464  and  _466
REMARK  198  A    between atoms: _466  and  _467
REMARK  199  A    between atoms: _466  and  _469
REMARK  200  A    between atoms: _469  and  _470
REMARK  201  A    between atoms: _470  and  _471
REMARK  202  A    between atoms: _471  and  _472
REMARK  203  A    between atoms: _481  and  _483
REMARK  204  A    between atoms: _483  and  _484
REMARK  205  A    between atoms: _483  and  _486
REMARK  206  A    between atoms: _486  and  _487
REMARK  207  A    between atoms: _487  and  _488
REMARK  208  A    between atoms: _488  and  _489
REMARK  209  A    between atoms: _489  and  _490
REMARK  210  A    between atoms: _494  and  _496
REMARK  211  A    between atoms: _496  and  _497
REMARK  212  A    between atoms: _496  and  _499
REMARK  213  A    between atoms: _499  and  _500
REMARK  214  A    between atoms: _505  and  _506
REMARK  215  A    between atoms: _508  and  _510
REMARK  216  A    between atoms: _510  and  _511
REMARK  217  A    between atoms: _513  and  _515
REMARK  218  A    between atoms: _515  and  _516
REMARK  219  A    between atoms: _515  and  _518
REMARK  220  A    between atoms: _518  and  _519
REMARK  221  A    between atoms: _522  and  _524
REMARK  222  A    between atoms: _524  and  _525
REMARK  223  A    between atoms: _524  and  _527
REMARK  224  A    between atoms: _527  and  _528
REMARK  225  A    between atoms: _533  and  _534
REMARK  226  A    between atoms: _536  and  _538
REMARK  227  A    between atoms: _538  and  _539
REMARK  228  A    between atoms: _538  and  _541
REMARK  229  A    between atoms: _541  and  _542
REMARK                            x       y       z     vdW  Elec       q    Type
REMARK                         _______ _______ _______ _____ _____    ______ ____
ROOT
ATOM      1  C   PHE A   3       5.296  54.840   9.181  0.00  0.00    +0.241 C 
ATOM      2  O   PHE A   3       6.095  55.002  10.114  0.00  0.00    -0.273 OA
ATOM      3  N   ILE A   4       5.171  53.706   8.506  0.00  0.00    -0.297 N 
ATOM      4  H   ILE A   4       4.523  53.669   7.694  0.00  0.00    +0.150 HD
ENDROOT
BRANCH   3   5
ATOM      5  CA  ILE A   4       5.923  52.502   8.875  0.00  0.00    +0.149 C 
BRANCH   5   6
ATOM      6  C   ILE A   4       7.436  52.649   8.703  0.00  0.00    +0.241 C 
ATOM      7  N   ILE A   5       8.182  52.288   9.745  0.00  0.00    -0.297 N 
ATOM      8  H   ILE A   5       7.717  51.970  10.619  0.00  0.00    +0.150 HD
ATOM      9  O   ILE A   4       7.921  53.118   7.653  0.00  0.00    -0.273 OA
BRANCH   7  10
ATOM     10  CA  ILE A   5       9.645  52.329   9.685  0.00  0.00    +0.149 C 
BRANCH  10  11
ATOM     11  C   ILE A   5      10.033  50.871   9.409  0.00  0.00    +0.241 C 
ATOM     12  O   ILE A   5       9.755  50.001  10.247  0.00  0.00    -0.273 OA
ATOM     13  N   THR A   6      10.681  50.608   8.275  0.00  0.00    -0.296 N 
ATOM     14  H   THR A   6      10.921  51.390   7.633  0.00  0.00    +0.150 HD
BRANCH  13  15
ATOM     15  CA  THR A   6      11.061  49.246   7.915  0.00  0.00    +0.164 C 
BRANCH  15  16
ATOM     16  CB  THR A   6      10.944  48.998   6.397  0.00  0.00    +0.136 C 
ATOM     17  CG2 THR A   6       9.611  49.507   5.858  0.00  0.00    +0.034 C 
BRANCH  16  18
ATOM     18  OG1 THR A   6      12.010  49.683   5.721  0.00  0.00    -0.382 OA
ATOM     19  HG1 THR A   6      11.937  49.525   4.746  0.00  0.00    +0.210 HD
ENDBRANCH  16  18
ENDBRANCH  15  16
BRANCH  15  20
ATOM     20  C   THR A   6      12.474  48.919   8.333  0.00  0.00    +0.229 C 
ATOM     21  O   THR A   6      13.223  49.797   8.767  0.00  0.00    -0.286 OA
ENDBRANCH  15  20
ENDBRANCH  13  15
ENDBRANCH  10  11
BRANCH  10  22
ATOM     22  CB  ILE A   5      10.263  52.752  11.043  0.00  0.00    +0.027 C 
ATOM     23  CG2 ILE A   5      11.795  52.764  10.963  0.00  0.00    +0.002 C 
BRANCH  22  24
ATOM     24  CG1 ILE A   5       9.723  54.121  11.457  0.00  0.00    +0.002 C 
ATOM     25  CD1 ILE A   5       9.993  55.219  10.424  0.00  0.00    +0.000 C 
ENDBRANCH  22  24
ENDBRANCH  10  22
ENDBRANCH   7  10
ENDBRANCH   5   6
BRANCH   5  26
ATOM     26  CB  ILE A   4       5.414  51.328   8.035  0.00  0.00    +0.027 C 
ATOM     27  CG2 ILE A   4       6.340  50.133   8.174  0.00  0.00    +0.002 C 
BRANCH  26  28
ATOM     28  CG1 ILE A   4       3.968  51.012   8.476  0.00  0.00    +0.002 C 
ATOM     29  CD1 ILE A   4       3.163  50.217   7.465  0.00  0.00    +0.000 C 
ENDBRANCH  26  28
ENDBRANCH   5  26
ENDBRANCH   3   5
BRANCH   1  30
ATOM     30  CA  PHE A   3       4.448  55.984   8.658  0.00  0.00    +0.153 C 
BRANCH  30  33
ATOM     31  C   SER A   2       2.982  57.280  10.116  0.00  0.00    +0.243 C 
ATOM     32  O   SER A   2       1.989  56.650   9.793  0.00  0.00    -0.273 OA
ATOM     33  N   PHE A   3       4.195  57.019   9.641  0.00  0.00    -0.297 N 
ATOM     34  H   PHE A   3       4.997  57.581   9.989  0.00  0.00    +0.150 HD
BRANCH  31  35
ATOM     35  CA  SER A   2       2.887  58.450  11.079  0.00  0.00    +0.178 C 
BRANCH  35  38
ATOM     36  C   SER A   1       4.663  57.835  12.627  0.00  0.00    +0.241 C 
ATOM     37  O   SER A   1       4.036  56.856  13.012  0.00  0.00    -0.274 OA
ATOM     38  N   SER A   2       4.198  58.661  11.701  0.00  0.00    -0.295 N 
ATOM     39  H   SER A   2       4.775  59.476  11.409  0.00  0.00    +0.150 HD
BRANCH  36  40
ATOM     40  CA  SER A   1       6.068  58.147  13.169  0.00  0.00    +0.174 C 
BRANCH  40  41
ATOM     41  N   SER A   1       6.357  58.025  14.600  0.00  0.00    -0.236 NA
ATOM     42  H   SER A   1       6.605  57.092  14.987  0.00  0.00    +0.142 HD
ENDBRANCH  40  41
BRANCH  40  43
ATOM     43  CB  SER A   1       7.096  57.290  12.406  0.00  0.00    +0.163 C 
BRANCH  43  44
ATOM     44  OG  SER A   1       6.846  57.313  11.005  0.00  0.00    -0.380 OA
ATOM     45  H   SER A   1       5.941  56.955  10.827  0.00  0.00    +0.211 HD
ENDBRANCH  43  44
ENDBRANCH  40  43
ENDBRANCH  36  40
ENDBRANCH  35  38
BRANCH  35  46
ATOM     46  CB  SER A   2       2.455  59.690  10.250  0.00  0.00    +0.166 C 
BRANCH  46  47
ATOM     47  OG  SER A   2       2.413  60.846  11.070  0.00  0.00    -0.380 OA
ATOM     48  H   SER A   2       3.311  61.011  11.452  0.00  0.00    +0.211 HD
ENDBRANCH  46  47
ENDBRANCH  35  46
ENDBRANCH  31  35
ENDBRANCH  30  33
BRANCH  30  49
ATOM     49  CB  PHE A   3       5.165  56.603   7.452  0.00  0.00    +0.055 C 
BRANCH  49  50
ATOM     50  CG  PHE A   3       4.457  57.819   6.907  0.00  0.00    -0.020 A 
ATOM     51  CD2 PHE A   3       4.905  59.086   7.205  0.00  0.00    -0.004 A 
ATOM     52  CE2 PHE A   3       4.260  60.222   6.721  0.00  0.00    -0.000 A 
ATOM     53  CZ  PHE A   3       3.142  60.085   5.923  0.00  0.00    -0.000 A 
ATOM     54  CE1 PHE A   3       2.679  58.820   5.621  0.00  0.00    -0.000 A 
ATOM     55  CD1 PHE A   3       3.335  57.684   6.113  0.00  0.00    -0.004 A 
ENDBRANCH  49  50
ENDBRANCH  30  49
ENDBRANCH   1  30
TORSDOF 24
REMARK  Name = ../refined-set-2016/2xbw/2xbw_pocket.pdb
REMARK  229 active torsions:
REMARK  status: ('A' for Active; 'I' for Inactive)
REMARK    1  A    between atoms: _1  and  _5
REMARK    2  A    between atoms: _5  and  _6
REMARK    3  A    between atoms: _5  and  _8
REMARK    4  A    between atoms: _8  and  _9
REMARK    5  A    between atoms: _12  and  _14
REMARK    6  A    between atoms: _14  and  _15
REMARK    7  A    between atoms: _14  and  _17
REMARK    8  A    between atoms: _20  and  _22
REMARK    9  A    between atoms: _22  and  _23
REMARK   10  A    between atoms: _22  and  _25
REMARK   11  A    between atoms: _25  and  _26
REMARK   12  A    between atoms: _31  and  _33
REMARK   13  A    between atoms: _33  and  _34
REMARK   14  A    between atoms: _33  and  _36
REMARK   15  A    between atoms: _36  and  _37
REMARK   16  A    between atoms: _37  and  _38
REMARK   17  A    between atoms: _43  and  _45
REMARK   18  A    between atoms: _45  and  _46
REMARK   19  A    between atoms: _45  and  _48
REMARK   20  A    between atoms: _48  and  _49
REMARK   21  A    between atoms: _55  and  _57
REMARK   22  A    between atoms: _57  and  _58
REMARK   23  A    between atoms: _57  and  _60
REMARK   24  A    between atoms: _60  and  _61
REMARK   25  A    between atoms: _64  and  _66
REMARK   26  A    between atoms: _66  and  _67
REMARK   27  A    between atoms: _66  and  _69
REMARK   28  A    between atoms: _69  and  _70
REMARK   29  A    between atoms: _70  and  _71
REMARK   30  A    between atoms: _71  and  _72
REMARK   31  A    between atoms: _72  and  _73
REMARK   32  A    between atoms: _77  and  _79
REMARK   33  A    between atoms: _79  and  _80
REMARK   34  A    between atoms: _79  and  _82
REMARK   35  A    between atoms: _82  and  _83
REMARK   36  A    between atoms: _83  and  _84
REMARK   37  A    between atoms: _87  and  _89
REMARK   38  A    between atoms: _89  and  _90
REMARK   39  A    between atoms: _89  and  _92
REMARK   40  A    between atoms: _92  and  _93
REMARK   41  A    between atoms: _96  and  _98
REMARK   42  A    between atoms: _98  and  _99
REMARK   43  A    between atoms: _98  and  _101
REMARK   44  A    between atoms: _101  and  _102
REMARK   45  A    between atoms: _107  and  _108
REMARK   46  A    between atoms: _110  and  _112
REMARK   47  A    between atoms: _112  and  _113
REMARK   48  A    between atoms: _112  and  _115
REMARK   49  A    between atoms: _115  and  _116
REMARK   50  A    between atoms: _119  and  _121
REMARK   51  A    between atoms: _121  and  _122
REMARK   52  A    between atoms: _121  and  _124
REMARK   53  A    between atoms: _124  and  _125
REMARK   54  A    between atoms: _128  and  _130
REMARK   55  A    between atoms: _130  and  _131
REMARK   56  A    between atoms: _130  and  _133
REMARK   57  A    between atoms: _136  and  _138
REMARK   58  A    between atoms: _138  and  _139
REMARK   59  A    between atoms: _138  and  _141
REMARK   60  A    between atoms: _141  and  _142
REMARK   61  A    between atoms: _142  and  _143
REMARK   62  A    between atoms: _143  and  _144
REMARK   63  A    between atoms: _153  and  _155
REMARK   64  A    between atoms: _155  and  _156
REMARK   65  A    between atoms: _155  and  _158
REMARK   66  A    between atoms: _158  and  _159
REMARK   67  A    between atoms: _162  and  _164
REMARK   68  A    between atoms: _164  and  _165
REMARK   69  A    between atoms: _164  and  _167
REMARK   70  A    between atoms: _167  and  _168
REMARK   71  A    between atoms: _173  and  _175
REMARK   72  A    between atoms: _175  and  _176
REMARK   73  A    between atoms: _175  and  _178
REMARK   74  A    between atoms: _178  and  _179
REMARK   75  A    between atoms: _179  and  _180
REMARK   76  A    between atoms: _183  and  _185
REMARK   77  A    between atoms: _185  and  _186
REMARK   78  A    between atoms: _185  and  _188
REMARK   79  A    between atoms: _188  and  _189
REMARK   80  A    between atoms: _189  and  _190
REMARK   81  A    between atoms: _190  and  _191
REMARK   82  A    between atoms: _191  and  _192
REMARK   83  A    between atoms: _196  and  _198
REMARK   84  A    between atoms: _198  and  _199
REMARK   85  A    between atoms: _201  and  _203
REMARK   86  A    between atoms: _203  and  _204
REMARK   87  A    between atoms: _203  and  _206
REMARK   88  A    between atoms: _209  and  _211
REMARK   89  A    between atoms: _211  and  _212
REMARK   90  A    between atoms: _211  and  _214
REMARK   91  A    between atoms: _214  and  _215
REMARK   92  A    between atoms: _217  and  _219
REMARK   93  A    between atoms: _219  and  _220
REMARK   94  A    between atoms: _219  and  _222
REMARK   95  A    between atoms: _222  and  _223
REMARK   96  A    between atoms: _225  and  _227
REMARK   97  A    between atoms: _227  and  _228
REMARK   98  A    between atoms: _227  and  _230
REMARK   99  A    between atoms: _230  and  _231
REMARK  100  A    between atoms: _237  and  _239
REMARK  101  A    between atoms: _239  and  _240
REMARK  102  A    between atoms: _239  and  _242
REMARK  103  A    between atoms: _242  and  _243
REMARK  104  A    between atoms: _246  and  _248
REMARK  105  A    between atoms: _248  and  _249
REMARK  106  A    between atoms: _248  and  _251
REMARK  107  A    between atoms: _251  and  _252
REMARK  108  A    between atoms: _255  and  _257
REMARK  109  A    between atoms: _257  and  _258
REMARK  110  A    between atoms: _257  and  _260
REMARK  111  A    between atoms: _260  and  _261
REMARK  112  A    between atoms: _264  and  _266
REMARK  113  A    between atoms: _266  and  _267
REMARK  114  A    between atoms: _266  and  _269
REMARK  115  A    between atoms: _269  and  _270
REMARK  116  A    between atoms: _270  and  _271
REMARK  117  A    between atoms: _273  and  _275
REMARK  118  A    between atoms: _275  and  _276
REMARK  119  A    between atoms: _275  and  _278
REMARK  120  A    between atoms: _278  and  _279
REMARK  121  A    between atoms: _285  and  _287
REMARK  122  A    between atoms: _287  and  _288
REMARK  123  A    between atoms: _287  and  _290
REMARK  124  A    between atoms: _292  and  _294
REMARK  125  A    between atoms: _294  and  _295
REMARK  126  A    between atoms: _298  and  _300
REMARK  127  A    between atoms: _300  and  _301
REMARK  128  A    between atoms: _303  and  _305
REMARK  129  A    between atoms: _305  and  _306
REMARK  130  A    between atoms: _305  and  _308
REMARK  131  A    between atoms: _308  and  _309
REMARK  132  A    between atoms: _309  and  _310
REMARK  133  A    between atoms: _313  and  _315
REMARK  134  A    between atoms: _315  and  _316
REMARK  135  A    between atoms: _315  and  _318
REMARK  136  A    between atoms: _318  and  _319
REMARK  137  A    between atoms: _322  and  _324
REMARK  138  A    between atoms: _324  and  _325
REMARK  139  A    between atoms: _328  and  _330
REMARK  140  A    between atoms: _330  and  _331
REMARK  141  A    between atoms: _330  and  _333
REMARK  142  A    between atoms: _333  and  _334
REMARK  143  A    between atoms: _334  and  _457
REMARK  144  A    between atoms: _335  and  _337
REMARK  145  A    between atoms: _337  and  _338
REMARK  146  A    between atoms: _337  and  _340
REMARK  147  A    between atoms: _340  and  _341
REMARK  148  A    between atoms: _341  and  _342
REMARK  149  A    between atoms: _347  and  _349
REMARK  150  A    between atoms: _349  and  _350
REMARK  151  A    between atoms: _352  and  _354
REMARK  152  A    between atoms: _354  and  _355
REMARK  153  A    between atoms: _354  and  _357
REMARK  154  A    between atoms: _357  and  _358
REMARK  155  A    between atoms: _361  and  _363
REMARK  156  A    between atoms: _363  and  _364
REMARK  157  A    between atoms: _363  and  _366
REMARK  158  A    between atoms: _366  and  _367
REMARK  159  A    between atoms: _369  and  _371
REMARK  160  A    between atoms: _371  and  _372
REMARK  161  A    between atoms: _374  and  _376
REMARK  162  A    between atoms: _376  and  _377
REMARK  163  A    between atoms: _379  and  _381
REMARK  164  A    between atoms: _381  and  _382
REMARK  165  A    between atoms: _381  and  _384
REMARK  166  A    between atoms: _384  and  _385
REMARK  167  A    between atoms: _390  and  _392
REMARK  168  A    between atoms: _392  and  _393
REMARK  169  A    between atoms: _392  and  _395
REMARK  170  A    between atoms: _395  and  _396
REMARK  171  A    between atoms: _399  and  _401
REMARK  172  A    between atoms: _401  and  _402
REMARK  173  A    between atoms: _401  and  _404
REMARK  174  A    between atoms: _407  and  _409
REMARK  175  A    between atoms: _409  and  _410
REMARK  176  A    between atoms: _409  and  _412
REMARK  177  A    between atoms: _412  and  _413
REMARK  178  A    between atoms: _415  and  _417
REMARK  179  A    between atoms: _417  and  _418
REMARK  180  A    between atoms: _417  and  _420
REMARK  181  A    between atoms: _420  and  _421
REMARK  182  A    between atoms: _431  and  _433
REMARK  183  A    between atoms: _433  and  _434
REMARK  184  A    between atoms: _436  and  _438
REMARK  185  A    between atoms: _438  and  _439
REMARK  186  A    between atoms: _438  and  _441
REMARK  187  A    between atoms: _441  and  _442
REMARK  188  A    between atoms: _442  and  _443
REMARK  189  A    between atoms: _446  and  _448
REMARK  190  A    between atoms: _448  and  _449
REMARK  191  A    between atoms: _451  and  _453
REMARK  192  A    between atoms: _453  and  _454
REMARK  193  A    between atoms: _453  and  _456
REMARK  194  A    between atoms: _456  and  _457
REMARK  195  A    between atoms: _458  and  _460
REMARK  196  A    between atoms: _460  and  _461
REMARK  197  A    between atoms: _464  and  _466
REMARK  198  A    between atoms: _466  and  _467
REMARK  199  A    between atoms: _466  and  _469
REMARK  200  A    between atoms: _469  and  _470
REMARK  201  A    between atoms: _470  and  _471
REMARK  202  A    between atoms: _471  and  _472
REMARK  203  A    between atoms: _481  and  _483
REMARK  204  A    between atoms: _483  and  _484
REMARK  205  A    between atoms: _483  and  _486
REMARK  206  A    between atoms: _486  and  _487
REMARK  207  A    between atoms: _487  and  _488
REMARK  208  A    between atoms: _488  and  _489
REMARK  209  A    between atoms: _489  and  _490
REMARK  210  A    between atoms: _494  and  _496
REMARK  211  A    between atoms: _496  and  _497
REMARK  212  A    between atoms: _496  and  _499
REMARK  213  A    between atoms: _499  and  _500
REMARK  214  A    between atoms: _505  and  _506
REMARK  215  A    between atoms: _508  and  _510
REMARK  216  A    between atoms: _510  and  _511
REMARK  217  A    between atoms: _513  and  _515
REMARK  218  A    between atoms: _515  and  _516
REMARK  219  A    between atoms: _515  and  _518
REMARK  220  A    between atoms: _518  and  _519
REMARK  221  A    between atoms: _522  and  _524
REMARK  222  A    between atoms: _524  and  _525
REMARK  223  A    between atoms: _524  and  _527
REMARK  224  A    between atoms: _527  and  _528
REMARK  225  A    between atoms: _533  and  _534
REMARK  226  A    between atoms: _536  and  _538
REMARK  227  A    between atoms: _538  and  _539
REMARK  228  A    between atoms: _538  and  _541
REMARK  229  A    between atoms: _541  and  _542
REMARK                            x       y       z     vdW  Elec       q    Type
REMARK                         _______ _______ _______ _____ _____    ______ ____
ROOT
ATOM      1  C   PHE A   2      16.600  55.249  10.992  0.00  0.00    +0.241 C 
ATOM      2  N   CYS A   3      16.455  55.584  12.269  0.00  0.00    -0.296 N 
ATOM      3  H   CYS A   3      16.567  54.862  13.009  0.00  0.00    +0.150 HD
ATOM      4  O   PHE A   2      16.524  56.080  10.050  0.00  0.00    -0.273 OA
ENDROOT
BRANCH   2   5
ATOM      5  CA  CYS A   3      16.142  56.948  12.637  0.00  0.00    +0.160 C 
BRANCH   5   6
ATOM      6  C   CYS A   3      17.285  57.618  13.328  0.00  0.00    +0.242 C 
ATOM      7  O   CYS A   3      18.101  56.972  14.007  0.00  0.00    -0.273 OA
ATOM      8  N   ALA A   4      17.356  58.926  13.159  0.00  0.00    -0.297 N 
ATOM      9  H   ALA A   4      16.663  59.418  12.559  0.00  0.00    +0.150 HD
BRANCH   8  10
ATOM     10  CA  ALA A   4      18.413  59.668  13.821  0.00  0.00    +0.149 C 
ATOM     11  CB  ALA A   4      19.736  59.579  12.993  0.00  0.00    +0.031 C 
BRANCH  10  12
ATOM     12  C   ALA A   4      17.974  61.111  13.987  0.00  0.00    +0.241 C 
ATOM     13  N   GLY A   5      18.525  61.770  14.996  0.00  0.00    -0.296 N 
ATOM     14  H   GLY A   5      19.207  61.292  15.620  0.00  0.00    +0.150 HD
ATOM     15  O   ALA A   4      17.152  61.625  13.211  0.00  0.00    -0.273 OA
BRANCH  13  16
ATOM     16  CA  GLY A   5      18.180  63.143  15.227  0.00  0.00    +0.163 C 
BRANCH  16  17
ATOM     17  C   GLY A   5      17.763  63.421  16.657  0.00  0.00    +0.229 C 
ATOM     18  O   GLY A   5      18.168  62.723  17.591  0.00  0.00    -0.286 OA
ENDBRANCH  16  17
ENDBRANCH  13  16
ENDBRANCH  10  12
ENDBRANCH   8  10
ENDBRANCH   5   6
BRANCH   5  19
ATOM     19  CB  CYS A   3      14.907  56.975  13.540  0.00  0.00    +0.098 C 
ATOM     20  SG  CYS A   3      13.577  55.902  12.874  0.00  0.00    -0.080 S 
ENDBRANCH   5  19
ENDBRANCH   2   5
BRANCH   1  21
ATOM     21  CA  PHE A   2      16.861  53.771  10.720  0.00  0.00    +0.153 C 
BRANCH  21  24
ATOM     22  C   MET A   1      16.025  52.374   8.902  0.00  0.00    +0.238 C 
ATOM     23  O   MET A   1      15.978  51.363   9.621  0.00  0.00    -0.274 OA
ATOM     24  N   PHE A   2      16.506  53.544   9.316  0.00  0.00    -0.297 N 
ATOM     25  H   PHE A   2      16.633  54.314   8.628  0.00  0.00    +0.150 HD
BRANCH  22  26
ATOM     26  CA  MET A   1      15.520  52.329   7.465  0.00  0.00    +0.146 C 
BRANCH  26  27
ATOM     27  N   MET A   1      15.401  50.939   7.015  0.00  0.00    -0.238 NA
ATOM     28  H   MET A   1      14.870  50.266   7.605  0.00  0.00    +0.142 HD
ENDBRANCH  26  27
BRANCH  26  29
ATOM     29  CB  MET A   1      14.138  53.011   7.475  0.00  0.00    +0.038 C 
BRANCH  29  30
ATOM     30  CG  MET A   1      13.310  52.877   6.200  0.00  0.00    +0.060 C 
BRANCH  30  31
ATOM     31  SD  MET A   1      11.607  53.496   6.479  0.00  0.00    -0.139 S 
ATOM     32  CE  MET A   1      10.882  53.038   4.902  0.00  0.00    +0.069 C 
ENDBRANCH  30  31
ENDBRANCH  29  30
ENDBRANCH  26  29
ENDBRANCH  22  26
ENDBRANCH  21  24
BRANCH  21  33
ATOM     33  CB  PHE A   2      18.296  53.382  11.079  0.00  0.00    +0.055 C 
BRANCH  33  34
ATOM     34  CG  PHE A   2      19.348  54.254  10.475  0.00  0.00    -0.020 A 
ATOM     35  CD2 PHE A   2      19.828  55.363  11.168  0.00  0.00    -0.004 A 
ATOM     36  CE2 PHE A   2      20.875  56.128  10.638  0.00  0.00    -0.000 A 
ATOM     37  CZ  PHE A   2      21.442  55.775   9.414  0.00  0.00    -0.000 A 
ATOM     38  CE1 PHE A   2      20.955  54.666   8.715  0.00  0.00    -0.000 A 
ATOM     39  CD1 PHE A   2      19.911  53.918   9.246  0.00  0.00    -0.004 A 
ENDBRANCH  33  34
ENDBRANCH  21  33
ENDBRANCH   1  21
TORSDOF 16
REMARK  Name = ../refined-set-2016/2xbw/2xbw_pocket.pdb
REMARK  229 active torsions:
REMARK  status: ('A' for Active; 'I' for Inactive)
REMARK    1  A    between atoms: _1  and  _5
REMARK    2  A    between atoms: _5  and  _6
REMARK    3  A    between atoms: _5  and  _8
REMARK    4  A    between atoms: _8  and  _9
REMARK    5  A    between atoms: _12  and  _14
REMARK    6  A    between atoms: _14  and  _15
REMARK    7  A    between atoms: _14  and  _17
REMARK    8  A    between atoms: _20  and  _22
REMARK    9  A    between atoms: _22  and  _23
REMARK   10  A    between atoms: _22  and  _25
REMARK   11  A    between atoms: _25  and  _26
REMARK   12  A    between atoms: _31  and  _33
REMARK   13  A    between atoms: _33  and  _34
REMARK   14  A    between atoms: _33  and  _36
REMARK   15  A    between atoms: _36  and  _37
REMARK   16  A    between atoms: _37  and  _38
REMARK   17  A    between atoms: _43  and  _45
REMARK   18  A    between atoms: _45  and  _46
REMARK   19  A    between atoms: _45  and  _48
REMARK   20  A    between atoms: _48  and  _49
REMARK   21  A    between atoms: _55  and  _57
REMARK   22  A    between atoms: _57  and  _58
REMARK   23  A    between atoms: _57  and  _60
REMARK   24  A    between atoms: _60  and  _61
REMARK   25  A    between atoms: _64  and  _66
REMARK   26  A    between atoms: _66  and  _67
REMARK   27  A    between atoms: _66  and  _69
REMARK   28  A    between atoms: _69  and  _70
REMARK   29  A    between atoms: _70  and  _71
REMARK   30  A    between atoms: _71  and  _72
REMARK   31  A    between atoms: _72  and  _73
REMARK   32  A    between atoms: _77  and  _79
REMARK   33  A    between atoms: _79  and  _80
REMARK   34  A    between atoms: _79  and  _82
REMARK   35  A    between atoms: _82  and  _83
REMARK   36  A    between atoms: _83  and  _84
REMARK   37  A    between atoms: _87  and  _89
REMARK   38  A    between atoms: _89  and  _90
REMARK   39  A    between atoms: _89  and  _92
REMARK   40  A    between atoms: _92  and  _93
REMARK   41  A    between atoms: _96  and  _98
REMARK   42  A    between atoms: _98  and  _99
REMARK   43  A    between atoms: _98  and  _101
REMARK   44  A    between atoms: _101  and  _102
REMARK   45  A    between atoms: _107  and  _108
REMARK   46  A    between atoms: _110  and  _112
REMARK   47  A    between atoms: _112  and  _113
REMARK   48  A    between atoms: _112  and  _115
REMARK   49  A    between atoms: _115  and  _116
REMARK   50  A    between atoms: _119  and  _121
REMARK   51  A    between atoms: _121  and  _122
REMARK   52  A    between atoms: _121  and  _124
REMARK   53  A    between atoms: _124  and  _125
REMARK   54  A    between atoms: _128  and  _130
REMARK   55  A    between atoms: _130  and  _131
REMARK   56  A    between atoms: _130  and  _133
REMARK   57  A    between atoms: _136  and  _138
REMARK   58  A    between atoms: _138  and  _139
REMARK   59  A    between atoms: _138  and  _141
REMARK   60  A    between atoms: _141  and  _142
REMARK   61  A    between atoms: _142  and  _143
REMARK   62  A    between atoms: _143  and  _144
REMARK   63  A    between atoms: _153  and  _155
REMARK   64  A    between atoms: _155  and  _156
REMARK   65  A    between atoms: _155  and  _158
REMARK   66  A    between atoms: _158  and  _159
REMARK   67  A    between atoms: _162  and  _164
REMARK   68  A    between atoms: _164  and  _165
REMARK   69  A    between atoms: _164  and  _167
REMARK   70  A    between atoms: _167  and  _168
REMARK   71  A    between atoms: _173  and  _175
REMARK   72  A    between atoms: _175  and  _176
REMARK   73  A    between atoms: _175  and  _178
REMARK   74  A    between atoms: _178  and  _179
REMARK   75  A    between atoms: _179  and  _180
REMARK   76  A    between atoms: _183  and  _185
REMARK   77  A    between atoms: _185  and  _186
REMARK   78  A    between atoms: _185  and  _188
REMARK   79  A    between atoms: _188  and  _189
REMARK   80  A    between atoms: _189  and  _190
REMARK   81  A    between atoms: _190  and  _191
REMARK   82  A    between atoms: _191  and  _192
REMARK   83  A    between atoms: _196  and  _198
REMARK   84  A    between atoms: _198  and  _199
REMARK   85  A    between atoms: _201  and  _203
REMARK   86  A    between atoms: _203  and  _204
REMARK   87  A    between atoms: _203  and  _206
REMARK   88  A    between atoms: _209  and  _211
REMARK   89  A    between atoms: _211  and  _212
REMARK   90  A    between atoms: _211  and  _214
REMARK   91  A    between atoms: _214  and  _215
REMARK   92  A    between atoms: _217  and  _219
REMARK   93  A    between atoms: _219  and  _220
REMARK   94  A    between atoms: _219  and  _222
REMARK   95  A    between atoms: _222  and  _223
REMARK   96  A    between atoms: _225  and  _227
REMARK   97  A    between atoms: _227  and  _228
REMARK   98  A    between atoms: _227  and  _230
REMARK   99  A    between atoms: _230  and  _231
REMARK  100  A    between atoms: _237  and  _239
REMARK  101  A    between atoms: _239  and  _240
REMARK  102  A    between atoms: _239  and  _242
REMARK  103  A    between atoms: _242  and  _243
REMARK  104  A    between atoms: _246  and  _248
REMARK  105  A    between atoms: _248  and  _249
REMARK  106  A    between atoms: _248  and  _251
REMARK  107  A    between atoms: _251  and  _252
REMARK  108  A    between atoms: _255  and  _257
REMARK  109  A    between atoms: _257  and  _258
REMARK  110  A    between atoms: _257  and  _260
REMARK  111  A    between atoms: _260  and  _261
REMARK  112  A    between atoms: _264  and  _266
REMARK  113  A    between atoms: _266  and  _267
REMARK  114  A    between atoms: _266  and  _269
REMARK  115  A    between atoms: _269  and  _270
REMARK  116  A    between atoms: _270  and  _271
REMARK  117  A    between atoms: _273  and  _275
REMARK  118  A    between atoms: _275  and  _276
REMARK  119  A    between atoms: _275  and  _278
REMARK  120  A    between atoms: _278  and  _279
REMARK  121  A    between atoms: _285  and  _287
REMARK  122  A    between atoms: _287  and  _288
REMARK  123  A    between atoms: _287  and  _290
REMARK  124  A    between atoms: _292  and  _294
REMARK  125  A    between atoms: _294  and  _295
REMARK  126  A    between atoms: _298  and  _300
REMARK  127  A    between atoms: _300  and  _301
REMARK  128  A    between atoms: _303  and  _305
REMARK  129  A    between atoms: _305  and  _306
REMARK  130  A    between atoms: _305  and  _308
REMARK  131  A    between atoms: _308  and  _309
REMARK  132  A    between atoms: _309  and  _310
REMARK  133  A    between atoms: _313  and  _315
REMARK  134  A    between atoms: _315  and  _316
REMARK  135  A    between atoms: _315  and  _318
REMARK  136  A    between atoms: _318  and  _319
REMARK  137  A    between atoms: _322  and  _324
REMARK  138  A    between atoms: _324  and  _325
REMARK  139  A    between atoms: _328  and  _330
REMARK  140  A    between atoms: _330  and  _331
REMARK  141  A    between atoms: _330  and  _333
REMARK  142  A    between atoms: _333  and  _334
REMARK  143  A    between atoms: _334  and  _457
REMARK  144  A    between atoms: _335  and  _337
REMARK  145  A    between atoms: _337  and  _338
REMARK  146  A    between atoms: _337  and  _340
REMARK  147  A    between atoms: _340  and  _341
REMARK  148  A    between atoms: _341  and  _342
REMARK  149  A    between atoms: _347  and  _349
REMARK  150  A    between atoms: _349  and  _350
REMARK  151  A    between atoms: _352  and  _354
REMARK  152  A    between atoms: _354  and  _355
REMARK  153  A    between atoms: _354  and  _357
REMARK  154  A    between atoms: _357  and  _358
REMARK  155  A    between atoms: _361  and  _363
REMARK  156  A    between atoms: _363  and  _364
REMARK  157  A    between atoms: _363  and  _366
REMARK  158  A    between atoms: _366  and  _367
REMARK  159  A    between atoms: _369  and  _371
REMARK  160  A    between atoms: _371  and  _372
REMARK  161  A    between atoms: _374  and  _376
REMARK  162  A    between atoms: _376  and  _377
REMARK  163  A    between atoms: _379  and  _381
REMARK  164  A    between atoms: _381  and  _382
REMARK  165  A    between atoms: _381  and  _384
REMARK  166  A    between atoms: _384  and  _385
REMARK  167  A    between atoms: _390  and  _392
REMARK  168  A    between atoms: _392  and  _393
REMARK  169  A    between atoms: _392  and  _395
REMARK  170  A    between atoms: _395  and  _396
REMARK  171  A    between atoms: _399  and  _401
REMARK  172  A    between atoms: _401  and  _402
REMARK  173  A    between atoms: _401  and  _404
REMARK  174  A    between atoms: _407  and  _409
REMARK  175  A    between atoms: _409  and  _410
REMARK  176  A    between atoms: _409  and  _412
REMARK  177  A    between atoms: _412  and  _413
REMARK  178  A    between atoms: _415  and  _417
REMARK  179  A    between atoms: _417  and  _418
REMARK  180  A    between atoms: _417  and  _420
REMARK  181  A    between atoms: _420  and  _421
REMARK  182  A    between atoms: _431  and  _433
REMARK  183  A    between atoms: _433  and  _434
REMARK  184  A    between atoms: _436  and  _438
REMARK  185  A    between atoms: _438  and  _439
REMARK  186  A    between atoms: _438  and  _441
REMARK  187  A    between atoms: _441  and  _442
REMARK  188  A    between atoms: _442  and  _443
REMARK  189  A    between atoms: _446  and  _448
REMARK  190  A    between atoms: _448  and  _449
REMARK  191  A    between atoms: _451  and  _453
REMARK  192  A    between atoms: _453  and  _454
REMARK  193  A    between atoms: _453  and  _456
REMARK  194  A    between atoms: _456  and  _457
REMARK  195  A    between atoms: _458  and  _460
REMARK  196  A    between atoms: _460  and  _461
REMARK  197  A    between atoms: _464  and  _466
REMARK  198  A    between atoms: _466  and  _467
REMARK  199  A    between atoms: _466  and  _469
REMARK  200  A    between atoms: _469  and  _470
REMARK  201  A    between atoms: _470  and  _471
REMARK  202  A    between atoms: _471  and  _472
REMARK  203  A    between atoms: _481  and  _483
REMARK  204  A    between atoms: _483  and  _484
REMARK  205  A    between atoms: _483  and  _486
REMARK  206  A    between atoms: _486  and  _487
REMARK  207  A    between atoms: _487  and  _488
REMARK  208  A    between atoms: _488  and  _489
REMARK  209  A    between atoms: _489  and  _490
REMARK  210  A    between atoms: _494  and  _496
REMARK  211  A    between atoms: _496  and  _497
REMARK  212  A    between atoms: _496  and  _499
REMARK  213  A    between atoms: _499  and  _500
REMARK  214  A    between atoms: _505  and  _506
REMARK  215  A    between atoms: _508  and  _510
REMARK  216  A    between atoms: _510  and  _511
REMARK  217  A    between atoms: _513  and  _515
REMARK  218  A    between atoms: _515  and  _516
REMARK  219  A    between atoms: _515  and  _518
REMARK  220  A    between atoms: _518  and  _519
REMARK  221  A    between atoms: _522  and  _524
REMARK  222  A    between atoms: _524  and  _525
REMARK  223  A    between atoms: _524  and  _527
REMARK  224  A    between atoms: _527  and  _528
REMARK  225  A    between atoms: _533  and  _534
REMARK  226  A    between atoms: _536  and  _538
REMARK  227  A    between atoms: _538  and  _539
REMARK  228  A    between atoms: _538  and  _541
REMARK  229  A    between atoms: _541  and  _542
REMARK                            x       y       z     vdW  Elec       q    Type
REMARK                         _______ _______ _______ _____ _____    ______ ____
ROOT
ATOM      1  CA  SER A   8      12.015  69.203   9.361  0.00  0.00    +0.160 C 
ENDROOT
BRANCH   1   2
ATOM      2  C   SER A   8      12.164  69.722  10.759  0.00  0.00    +0.242 C 
ATOM      3  N   GLY A   9      12.919  69.002  11.584  0.00  0.00    -0.297 N 
ATOM      4  H   GLY A   9      13.363  68.133  11.224  0.00  0.00    +0.150 HD
ATOM      5  O   SER A   8      11.596  70.761  11.078  0.00  0.00    -0.273 OA
BRANCH   3   6
ATOM      6  CA  GLY A   9      13.148  69.382  12.971  0.00  0.00    +0.149 C 
ATOM      7  CB  GLY A   9      13.979  70.673  13.038  0.00  0.00    +0.031 C 
BRANCH   6   8
ATOM      8  C   GLY A   9      11.860  69.545  13.782  0.00  0.00    +0.241 C 
ATOM      9  O   GLY A   9      11.841  70.288  14.753  0.00  0.00    -0.273 OA
ATOM     10  N   GLY A  10      10.788  68.855  13.401  0.00  0.00    -0.298 N 
ATOM     11  H   GLY A  10      10.832  68.237  12.566  0.00  0.00    +0.150 HD
BRANCH  10  12
ATOM     12  CA  GLY A  10       9.545  68.973  14.168  0.00  0.00    +0.137 C 
BRANCH  12  13
ATOM     13  C   GLY A  10       9.657  68.314  15.544  0.00  0.00    +0.227 C 
ATOM     14  O   GLY A  10      10.324  67.286  15.709  0.00  0.00    -0.286 OA
ENDBRANCH  12  13
BRANCH  12  15
ATOM     15  CB  GLY A  10       8.375  68.353  13.411  0.00  0.00    +0.031 C 
BRANCH  15  16
ATOM     16  CG  GLY A  10       7.863  69.216  12.298  0.00  0.00    +0.045 C 
BRANCH  16  17
ATOM     17  CD  GLY A  10       6.528  68.703  11.814  0.00  0.00    +0.174 C 
BRANCH  17  18
ATOM     18  NE  GLY A  10       6.191  69.314  10.543  0.00  0.00    -0.265 N 
ATOM     19  HE  GLY A  10       6.777  70.109  10.216  0.00  0.00    +0.259 HD
ATOM     20  CZ  GLY A  10       5.186  68.928   9.769  0.00  0.00    +0.342 C 
ATOM     21  NH2 GLY A  10       4.400  67.928  10.142  0.00  0.00    -0.292 N 
ATOM     22 HH21 GLY A  10       4.570  67.442  11.046  0.00  0.00    +0.255 HD
ATOM     23 HH22 GLY A  10       3.613  67.629   9.531  0.00  0.00    +0.255 HD
ATOM     24  NH1 GLY A  10       4.995  69.527   8.602  0.00  0.00    -0.292 N 
ATOM     25 HH11 GLY A  10       5.631  70.293   8.300  0.00  0.00    +0.255 HD
ATOM     26 HH12 GLY A  10       4.209  69.231   7.988  0.00  0.00    +0.255 HD
ENDBRANCH  17  18
ENDBRANCH  16  17
ENDBRANCH  15  16
ENDBRANCH  12  15
ENDBRANCH  10  12
ENDBRANCH   6   8
ENDBRANCH   3   6
ENDBRANCH   1   2
BRANCH   1  27
ATOM     27  N   SER A   8      10.580  69.189   9.080  0.00  0.00    -0.296 N 
ATOM     28  H   SER A   8       9.993  69.979   9.417  0.00  0.00    +0.150 HD
ATOM     29  C   ASP A   7      10.003  68.200   8.409  0.00  0.00    +0.243 C 
ATOM     30  O   ASP A   7      10.647  67.271   7.916  0.00  0.00    -0.273 OA
BRANCH  29  31
ATOM     31  CA  ASP A   7       8.491  68.254   8.247  0.00  0.00    +0.176 C 
BRANCH  31  32
ATOM     32  N   ASP A   7       8.041  66.892   8.013  0.00  0.00    -0.295 N 
ATOM     33  C   GLY A   6       8.036  66.003   9.000  0.00  0.00    +0.241 C 
ATOM     34  O   GLY A   6       8.361  66.289  10.151  0.00  0.00    -0.273 OA
ATOM     35  H   ASP A   7       7.720  66.611   7.065  0.00  0.00    +0.150 HD
BRANCH  33  36
ATOM     36  CA  GLY A   6       7.639  64.572   8.623  0.00  0.00    +0.149 C 
BRANCH  36  37
ATOM     37  N   GLY A   6       8.911  63.837   8.578  0.00  0.00    -0.297 N 
ATOM     38  H   GLY A   6       9.247  63.359   9.438  0.00  0.00    +0.150 HD
ATOM     39  C   GLN A   5       9.647  63.764   7.471  0.00  0.00    +0.243 C 
ATOM     40  O   GLN A   5       9.293  64.226   6.391  0.00  0.00    -0.273 OA
BRANCH  39  41
ATOM     41  CA  GLN A   5      10.975  63.037   7.574  0.00  0.00    +0.176 C 
BRANCH  41  42
ATOM     42  N   GLN A   5      11.322  62.605   6.237  0.00  0.00    -0.295 N 
ATOM     43  C   TRP A   4      12.306  61.744   6.041  0.00  0.00    +0.241 C 
ATOM     44  O   TRP A   4      12.972  61.280   6.946  0.00  0.00    -0.273 OA
ATOM     45  H   GLN A   5      10.792  62.975   5.422  0.00  0.00    +0.150 HD
BRANCH  43  46
ATOM     46  CA  TRP A   4      12.555  61.355   4.599  0.00  0.00    +0.153 C 
BRANCH  46  47
ATOM     47  N   TRP A   4      13.765  60.554   4.413  0.00  0.00    -0.297 N 
ATOM     48  H   TRP A   4      14.183  60.034   5.211  0.00  0.00    +0.150 HD
ATOM     49  C   SER A   3      14.319  60.503   3.211  0.00  0.00    +0.243 C 
ATOM     50  O   SER A   3      13.852  61.136   2.242  0.00  0.00    -0.273 OA
BRANCH  49  51
ATOM     51  CA  SER A   3      15.572  59.657   3.041  0.00  0.00    +0.178 C 
BRANCH  51  52
ATOM     52  N   SER A   3      16.735  60.142   3.769  0.00  0.00    -0.295 N 
ATOM     53  H   SER A   3      16.722  60.189   4.808  0.00  0.00    +0.150 HD
ATOM     54  C   VAL A   2      17.819  60.526   3.090  0.00  0.00    +0.241 C 
ATOM     55  O   VAL A   2      17.835  60.600   1.859  0.00  0.00    -0.273 OA
BRANCH  54  56
ATOM     56  CA  VAL A   2      19.058  60.916   3.896  0.00  0.00    +0.148 C 
BRANCH  56  57
ATOM     57  N   VAL A   2      20.154  60.064   3.414  0.00  0.00    -0.297 N 
ATOM     58  C   ILE A   1      20.049  58.738   3.459  0.00  0.00    +0.238 C 
ATOM     59  O   ILE A   1      19.049  58.183   3.902  0.00  0.00    -0.274 OA
ATOM     60  H   VAL A   2      21.018  60.501   3.035  0.00  0.00    +0.150 HD
BRANCH  58  61
ATOM     61  CA  ILE A   1      21.210  57.901   2.931  0.00  0.00    +0.145 C 
BRANCH  61  62
ATOM     62  N   ILE A   1      21.522  57.005   4.042  0.00  0.00    -0.238 NA
ATOM     63  H   ILE A   1      20.770  56.387   4.409  0.00  0.00    +0.142 HD
ENDBRANCH  61  62
BRANCH  61  64
ATOM     64  CB  ILE A   1      20.730  57.118   1.685  0.00  0.00    +0.025 C 
ATOM     65  CG2 ILE A   1      20.319  58.135   0.566  0.00  0.00    +0.002 C 
BRANCH  64  66
ATOM     66  CG1 ILE A   1      21.824  56.136   1.220  0.00  0.00    +0.002 C 
ATOM     67  CD1 ILE A   1      21.344  55.061   0.196  0.00  0.00    +0.000 C 
ENDBRANCH  64  66
ENDBRANCH  61  64
ENDBRANCH  58  61
ENDBRANCH  56  57
BRANCH  56  68
ATOM     68  CB  VAL A   2      19.403  62.406   3.678  0.00  0.00    +0.027 C 
ATOM     69  CG2 VAL A   2      20.700  62.718   4.436  0.00  0.00    +0.002 C 
ATOM     70  CG1 VAL A   2      18.260  63.305   4.180  0.00  0.00    +0.002 C 
ENDBRANCH  56  68
ENDBRANCH  54  56
ENDBRANCH  51  52
BRANCH  51  71
ATOM     71  CB  SER A   3      15.301  58.179   3.421  0.00  0.00    +0.166 C 
BRANCH  71  72
ATOM     72  OG  SER A   3      14.297  57.583   2.589  0.00  0.00    -0.380 OA
ATOM     73  H   SER A   3      14.156  56.643   2.866  0.00  0.00    +0.211 HD
ENDBRANCH  71  72
ENDBRANCH  51  71
ENDBRANCH  49  51
ENDBRANCH  46  47
BRANCH  46  74
ATOM     74  CB  TRP A   4      11.316  60.600   4.085  0.00  0.00    +0.057 C 
BRANCH  74  75
ATOM     75  CG  TRP A   4      11.084  59.251   4.770  0.00  0.00    -0.002 A 
ATOM     76  CD2 TRP A   4      10.217  58.996   5.877  0.00  0.00    +0.013 A 
ATOM     77  CE3 TRP A   4       9.378  59.808   6.662  0.00  0.00    +0.001 A 
ATOM     78  CZ3 TRP A   4       8.643  59.209   7.690  0.00  0.00    +0.000 A 
ATOM     79  CH2 TRP A   4       8.739  57.829   7.933  0.00  0.00    +0.001 A 
ATOM     80  CZ2 TRP A   4       9.558  57.014   7.179  0.00  0.00    +0.017 A 
ATOM     81  CE2 TRP A   4      10.288  57.609   6.158  0.00  0.00    +0.056 A 
ATOM     82  NE1 TRP A   4      11.162  57.049   5.260  0.00  0.00    -0.352 N 
ATOM     83  HE1 TRP A   4      11.421  56.043   5.214  0.00  0.00    +0.166 HD
ATOM     84  CD1 TRP A   4      11.642  58.043   4.426  0.00  0.00    +0.068 A 
ENDBRANCH  74  75
ENDBRANCH  46  74
ENDBRANCH  43  46
ENDBRANCH  41  42
ENDBRANCH  39  41
ENDBRANCH  36  37
BRANCH  36  85
ATOM     85  CB  GLY A   6       6.734  63.937   9.677  0.00  0.00    +0.041 C 
BRANCH  85  86
ATOM     86  CG  GLY A   6       6.415  62.512   9.284  0.00  0.00    +0.116 C 
BRANCH  86  87
ATOM     87  CD  GLY A   6       5.365  61.900  10.169  0.00  0.00    +0.365 C 
ATOM     88  OE2 GLY A   6       5.675  60.904  10.859  0.00  0.00    -0.246 OA
ATOM     89  OE1 GLY A   6       4.237  62.423  10.177  0.00  0.00    -0.246 OA
ENDBRANCH  86  87
ENDBRANCH  85  86
ENDBRANCH  36  85
ENDBRANCH  33  36
ENDBRANCH  31  32
ENDBRANCH  29  31
ENDBRANCH   1  27
BRANCH   1  90
ATOM     90  CB  SER A   8      12.769  70.145   8.425  0.00  0.00    +0.098 C 
BRANCH  90  91
ATOM     91  SG  SER A   8      12.681  69.528   6.750  0.00  0.00    -0.080 S 
BRANCH  91  92
ATOM     92  SG  TRP A   4      13.884  70.785   5.703  0.00  0.00    -0.080 S 
BRANCH  92  93
ATOM     93  CB  TRP A   4      15.578  70.088   5.877  0.00  0.00    +0.098 C 
BRANCH  93  94
ATOM     94  CA  TRP A   4      15.717  68.573   5.588  0.00  0.00    +0.160 C 
BRANCH  94  97
ATOM     95  C   SER A   3      17.029  67.709   7.385  0.00  0.00    +0.241 C 
ATOM     96  O   SER A   3      16.034  67.755   8.129  0.00  0.00    -0.273 OA
ATOM     97  N   TRP A   4      16.976  68.088   6.116  0.00  0.00    -0.296 N 
ATOM     98  H   TRP A   4      17.821  68.038   5.512  0.00  0.00    +0.150 HD
BRANCH  95  99
ATOM     99  CA  SER A   3      18.364  67.217   7.917  0.00  0.00    +0.149 C 
ATOM    100  CB  SER A   3      18.727  65.855   7.314  0.00  0.00    +0.031 C 
BRANCH  99 103
ATOM    101  C   VAL A   2      18.126  68.160  10.107  0.00  0.00    +0.241 C 
ATOM    102  O   VAL A   2      18.566  69.240   9.703  0.00  0.00    -0.273 OA
ATOM    103  N   SER A   3      18.055  67.089   9.330  0.00  0.00    -0.297 N 
ATOM    104  H   SER A   3      17.781  66.168   9.727  0.00  0.00    +0.150 HD
BRANCH 101 105
ATOM    105  CA  VAL A   2      17.677  67.992  11.555  0.00  0.00    +0.160 C 
BRANCH 105 108
ATOM    106  C   ILE A   1      17.886  69.222  13.624  0.00  0.00    +0.238 C 
ATOM    107  O   ILE A   1      17.386  68.293  14.263  0.00  0.00    -0.274 OA
ATOM    108  N   VAL A   2      18.092  69.165  12.312  0.00  0.00    -0.297 N 
ATOM    109  H   VAL A   2      18.551  69.961  11.824  0.00  0.00    +0.150 HD
BRANCH 106 110
ATOM    110  CA  ILE A   1      18.301  70.497  14.330  0.00  0.00    +0.145 C 
BRANCH 110 111
ATOM    111  N   ILE A   1      17.227  70.847  15.257  0.00  0.00    -0.238 NA
ATOM    112  H   ILE A   1      16.724  70.081  15.749  0.00  0.00    +0.142 HD
ENDBRANCH 110 111
BRANCH 110 113
ATOM    113  CB  ILE A   1      19.604  70.275  15.081  0.00  0.00    +0.038 C 
BRANCH 113 114
ATOM    114  CG  ILE A   1      20.139  71.522  15.722  0.00  0.00    +0.116 C 
BRANCH 114 115
ATOM    115  CD  ILE A   1      21.595  71.391  16.085  0.00  0.00    +0.365 C 
ATOM    116  OE2 ILE A   1      21.926  70.480  16.882  0.00  0.00    -0.246 OA
ATOM    117  OE1 ILE A   1      22.409  72.194  15.576  0.00  0.00    -0.246 OA
ENDBRANCH 114 115
ENDBRANCH 113 114
ENDBRANCH 110 113
ENDBRANCH 106 110
ENDBRANCH 105 108
BRANCH 105 118
ATOM    118  CB  VAL A   2      16.134  67.910  11.626  0.00  0.00    +0.143 C 
BRANCH 118 119
ATOM    119  CG  VAL A   2      15.550  66.600  11.078  0.00  0.00    +0.367 C 
ATOM    120  OD2 VAL A   2      16.311  65.621  10.902  0.00  0.00    -0.246 OA
ATOM    121  OD1 VAL A   2      14.299  66.555  10.835  0.00  0.00    -0.246 OA
ENDBRANCH 118 119
ENDBRANCH 105 118
ENDBRANCH 101 105
ENDBRANCH  99 103
ENDBRANCH  95  99
ENDBRANCH  94  97
BRANCH  94 122
ATOM    122  C   TRP A   4      15.653  68.261   4.100  0.00  0.00    +0.242 C 
ATOM    123  O   TRP A   4      16.591  67.692   3.514  0.00  0.00    -0.273 OA
ATOM    124  N   GLN A   5      14.528  68.610   3.493  0.00  0.00    -0.297 N 
ATOM    125  H   GLN A   5      13.770  69.059   4.045  0.00  0.00    +0.150 HD
BRANCH 124 126
ATOM    126  CA  GLN A   5      14.333  68.380   2.079  0.00  0.00    +0.149 C 
BRANCH 126 127
ATOM    127  C   GLN A   5      15.484  69.062   1.350  0.00  0.00    +0.241 C 
ATOM    128  O   GLN A   5      15.876  70.184   1.693  0.00  0.00    -0.273 OA
ATOM    129  N   GLY A   6      16.032  68.383   0.349  0.00  0.00    -0.295 N 
ATOM    130  H   GLY A   6      15.658  67.448   0.090  0.00  0.00    +0.150 HD
BRANCH 129 131
ATOM    131  CA  GLY A   6      17.153  68.944  -0.385  0.00  0.00    +0.176 C 
BRANCH 131 132
ATOM    132  C   GLY A   6      18.442  68.276   0.046  0.00  0.00    +0.243 C 
ATOM    133  N   ASP A   7      18.455  67.776   1.280  0.00  0.00    -0.296 N 
ATOM    134  H   ASP A   7      17.618  67.907   1.884  0.00  0.00    +0.150 HD
ATOM    135  O   GLY A   6      19.416  68.237  -0.707  0.00  0.00    -0.273 OA
BRANCH 133 136
ATOM    136  CA  ASP A   7      19.602  67.052   1.813  0.00  0.00    +0.160 C 
BRANCH 136 137
ATOM    137  C   ASP A   7      19.385  65.609   1.396  0.00  0.00    +0.241 C 
ATOM    138  O   ASP A   7      20.313  64.827   1.441  0.00  0.00    -0.273 OA
ATOM    139  N   SER A   8      18.140  65.285   1.038  0.00  0.00    -0.295 N 
ATOM    140  H   SER A   8      17.411  66.025   1.093  0.00  0.00    +0.150 HD
BRANCH 139 141
ATOM    141  CA  SER A   8      17.732  63.957   0.573  0.00  0.00    +0.178 C 
BRANCH 141 142
ATOM    142  C   SER A   8      18.744  63.335  -0.393  0.00  0.00    +0.243 C 
ATOM    143  N   GLY A   9      19.069  62.052  -0.187  0.00  0.00    -0.295 N 
ATOM    144  H   GLY A   9      18.647  61.543   0.616  0.00  0.00    +0.150 HD
ATOM    145  O   SER A   8      19.192  64.006  -1.324  0.00  0.00    -0.273 OA
BRANCH 143 146
ATOM    146  CA  GLY A   9      20.002  61.353  -1.065  0.00  0.00    +0.176 C 
BRANCH 146 147
ATOM    147  C   GLY A   9      21.443  61.471  -0.611  0.00  0.00    +0.243 C 
ATOM    148  N   GLY A  10      21.663  62.449   0.265  0.00  0.00    -0.296 N 
ATOM    149  H   GLY A  10      20.853  63.013   0.593  0.00  0.00    +0.150 HD
ATOM    150  O   GLY A   9      22.308  60.690  -1.035  0.00  0.00    -0.273 OA
BRANCH 148 151
ATOM    151  CA  GLY A  10      22.977  62.763   0.782  0.00  0.00    +0.163 C 
BRANCH 151 152
ATOM    152  C   GLY A  10      23.495  61.804   1.816  0.00  0.00    +0.229 C 
ATOM    153  O   GLY A  10      22.793  60.894   2.266  0.00  0.00    -0.286 OA
ENDBRANCH 151 152
ENDBRANCH 148 151
ENDBRANCH 146 147
ENDBRANCH 143 146
ENDBRANCH 141 142
BRANCH 141 154
ATOM    154  CB  SER A   8      16.381  64.094  -0.147  0.00  0.00    +0.166 C 
BRANCH 154 155
ATOM    155  OG  SER A   8      15.615  65.125   0.492  0.00  0.00    -0.380 OA
ATOM    156  H   SER A   8      14.743  65.219   0.033  0.00  0.00    +0.211 HD
ENDBRANCH 154 155
ENDBRANCH 141 154
ENDBRANCH 139 141
ENDBRANCH 136 137
BRANCH 136 157
ATOM    157  CB  ASP A   7      19.642  67.083   3.340  0.00  0.00    +0.143 C 
BRANCH 157 158
ATOM    158  CG  ASP A   7      19.927  68.476   3.891  0.00  0.00    +0.367 C 
ATOM    159  OD2 ASP A   7      19.295  68.870   4.908  0.00  0.00    -0.246 OA
ATOM    160  OD1 ASP A   7      20.798  69.144   3.302  0.00  0.00    -0.246 OA
ENDBRANCH 157 158
ENDBRANCH 136 157
ENDBRANCH 133 136
ENDBRANCH 131 132
ENDBRANCH 129 131
ENDBRANCH 126 127
BRANCH 126 161
ATOM    161  CB  GLN A   5      12.998  68.986   1.669  0.00  0.00    +0.039 C 
BRANCH 161 162
ATOM    162  CG  GLN A   5      12.602  68.761   0.225  0.00  0.00    +0.087 C 
BRANCH 162 163
ATOM    163  CD  GLN A   5      11.184  69.221  -0.006  0.00  0.00    +0.219 C 
ATOM    164  OE1 GLN A   5      10.878  70.413   0.118  0.00  0.00    -0.275 OA
ATOM    165  NE2 GLN A   5      10.297  68.277  -0.314  0.00  0.00    -0.329 N 
ATOM    166 HE21 GLN A   5      10.602  67.287  -0.407  0.00  0.00    +0.145 HD
ATOM    167 HE22 GLN A   5       9.299  68.529  -0.461  0.00  0.00    +0.145 HD
ENDBRANCH 162 163
ENDBRANCH 161 162
ENDBRANCH 126 161
ENDBRANCH 124 126
ENDBRANCH  94 122
ENDBRANCH  93  94
ENDBRANCH  92  93
ENDBRANCH  91  92
ENDBRANCH  90  91
ENDBRANCH   1  90
TORSDOF 71
REMARK  Name = ../refined-set-2016/2xbw/2xbw_pocket.pdb
REMARK  229 active torsions:
REMARK  status: ('A' for Active; 'I' for Inactive)
REMARK    1  A    between atoms: _1  and  _5
REMARK    2  A    between atoms: _5  and  _6
REMARK    3  A    between atoms: _5  and  _8
REMARK    4  A    between atoms: _8  and  _9
REMARK    5  A    between atoms: _12  and  _14
REMARK    6  A    between atoms: _14  and  _15
REMARK    7  A    between atoms: _14  and  _17
REMARK    8  A    between atoms: _20  and  _22
REMARK    9  A    between atoms: _22  and  _23
REMARK   10  A    between atoms: _22  and  _25
REMARK   11  A    between atoms: _25  and  _26
REMARK   12  A    between atoms: _31  and  _33
REMARK   13  A    between atoms: _33  and  _34
REMARK   14  A    between atoms: _33  and  _36
REMARK   15  A    between atoms: _36  and  _37
REMARK   16  A    between atoms: _37  and  _38
REMARK   17  A    between atoms: _43  and  _45
REMARK   18  A    between atoms: _45  and  _46
REMARK   19  A    between atoms: _45  and  _48
REMARK   20  A    between atoms: _48  and  _49
REMARK   21  A    between atoms: _55  and  _57
REMARK   22  A    between atoms: _57  and  _58
REMARK   23  A    between atoms: _57  and  _60
REMARK   24  A    between atoms: _60  and  _61
REMARK   25  A    between atoms: _64  and  _66
REMARK   26  A    between atoms: _66  and  _67
REMARK   27  A    between atoms: _66  and  _69
REMARK   28  A    between atoms: _69  and  _70
REMARK   29  A    between atoms: _70  and  _71
REMARK   30  A    between atoms: _71  and  _72
REMARK   31  A    between atoms: _72  and  _73
REMARK   32  A    between atoms: _77  and  _79
REMARK   33  A    between atoms: _79  and  _80
REMARK   34  A    between atoms: _79  and  _82
REMARK   35  A    between atoms: _82  and  _83
REMARK   36  A    between atoms: _83  and  _84
REMARK   37  A    between atoms: _87  and  _89
REMARK   38  A    between atoms: _89  and  _90
REMARK   39  A    between atoms: _89  and  _92
REMARK   40  A    between atoms: _92  and  _93
REMARK   41  A    between atoms: _96  and  _98
REMARK   42  A    between atoms: _98  and  _99
REMARK   43  A    between atoms: _98  and  _101
REMARK   44  A    between atoms: _101  and  _102
REMARK   45  A    between atoms: _107  and  _108
REMARK   46  A    between atoms: _110  and  _112
REMARK   47  A    between atoms: _112  and  _113
REMARK   48  A    between atoms: _112  and  _115
REMARK   49  A    between atoms: _115  and  _116
REMARK   50  A    between atoms: _119  and  _121
REMARK   51  A    between atoms: _121  and  _122
REMARK   52  A    between atoms: _121  and  _124
REMARK   53  A    between atoms: _124  and  _125
REMARK   54  A    between atoms: _128  and  _130
REMARK   55  A    between atoms: _130  and  _131
REMARK   56  A    between atoms: _130  and  _133
REMARK   57  A    between atoms: _136  and  _138
REMARK   58  A    between atoms: _138  and  _139
REMARK   59  A    between atoms: _138  and  _141
REMARK   60  A    between atoms: _141  and  _142
REMARK   61  A    between atoms: _142  and  _143
REMARK   62  A    between atoms: _143  and  _144
REMARK   63  A    between atoms: _153  and  _155
REMARK   64  A    between atoms: _155  and  _156
REMARK   65  A    between atoms: _155  and  _158
REMARK   66  A    between atoms: _158  and  _159
REMARK   67  A    between atoms: _162  and  _164
REMARK   68  A    between atoms: _164  and  _165
REMARK   69  A    between atoms: _164  and  _167
REMARK   70  A    between atoms: _167  and  _168
REMARK   71  A    between atoms: _173  and  _175
REMARK   72  A    between atoms: _175  and  _176
REMARK   73  A    between atoms: _175  and  _178
REMARK   74  A    between atoms: _178  and  _179
REMARK   75  A    between atoms: _179  and  _180
REMARK   76  A    between atoms: _183  and  _185
REMARK   77  A    between atoms: _185  and  _186
REMARK   78  A    between atoms: _185  and  _188
REMARK   79  A    between atoms: _188  and  _189
REMARK   80  A    between atoms: _189  and  _190
REMARK   81  A    between atoms: _190  and  _191
REMARK   82  A    between atoms: _191  and  _192
REMARK   83  A    between atoms: _196  and  _198
REMARK   84  A    between atoms: _198  and  _199
REMARK   85  A    between atoms: _201  and  _203
REMARK   86  A    between atoms: _203  and  _204
REMARK   87  A    between atoms: _203  and  _206
REMARK   88  A    between atoms: _209  and  _211
REMARK   89  A    between atoms: _211  and  _212
REMARK   90  A    between atoms: _211  and  _214
REMARK   91  A    between atoms: _214  and  _215
REMARK   92  A    between atoms: _217  and  _219
REMARK   93  A    between atoms: _219  and  _220
REMARK   94  A    between atoms: _219  and  _222
REMARK   95  A    between atoms: _222  and  _223
REMARK   96  A    between atoms: _225  and  _227
REMARK   97  A    between atoms: _227  and  _228
REMARK   98  A    between atoms: _227  and  _230
REMARK   99  A    between atoms: _230  and  _231
REMARK  100  A    between atoms: _237  and  _239
REMARK  101  A    between atoms: _239  and  _240
REMARK  102  A    between atoms: _239  and  _242
REMARK  103  A    between atoms: _242  and  _243
REMARK  104  A    between atoms: _246  and  _248
REMARK  105  A    between atoms: _248  and  _249
REMARK  106  A    between atoms: _248  and  _251
REMARK  107  A    between atoms: _251  and  _252
REMARK  108  A    between atoms: _255  and  _257
REMARK  109  A    between atoms: _257  and  _258
REMARK  110  A    between atoms: _257  and  _260
REMARK  111  A    between atoms: _260  and  _261
REMARK  112  A    between atoms: _264  and  _266
REMARK  113  A    between atoms: _266  and  _267
REMARK  114  A    between atoms: _266  and  _269
REMARK  115  A    between atoms: _269  and  _270
REMARK  116  A    between atoms: _270  and  _271
REMARK  117  A    between atoms: _273  and  _275
REMARK  118  A    between atoms: _275  and  _276
REMARK  119  A    between atoms: _275  and  _278
REMARK  120  A    between atoms: _278  and  _279
REMARK  121  A    between atoms: _285  and  _287
REMARK  122  A    between atoms: _287  and  _288
REMARK  123  A    between atoms: _287  and  _290
REMARK  124  A    between atoms: _292  and  _294
REMARK  125  A    between atoms: _294  and  _295
REMARK  126  A    between atoms: _298  and  _300
REMARK  127  A    between atoms: _300  and  _301
REMARK  128  A    between atoms: _303  and  _305
REMARK  129  A    between atoms: _305  and  _306
REMARK  130  A    between atoms: _305  and  _308
REMARK  131  A    between atoms: _308  and  _309
REMARK  132  A    between atoms: _309  and  _310
REMARK  133  A    between atoms: _313  and  _315
REMARK  134  A    between atoms: _315  and  _316
REMARK  135  A    between atoms: _315  and  _318
REMARK  136  A    between atoms: _318  and  _319
REMARK  137  A    between atoms: _322  and  _324
REMARK  138  A    between atoms: _324  and  _325
REMARK  139  A    between atoms: _328  and  _330
REMARK  140  A    between atoms: _330  and  _331
REMARK  141  A    between atoms: _330  and  _333
REMARK  142  A    between atoms: _333  and  _334
REMARK  143  A    between atoms: _334  and  _457
REMARK  144  A    between atoms: _335  and  _337
REMARK  145  A    between atoms: _337  and  _338
REMARK  146  A    between atoms: _337  and  _340
REMARK  147  A    between atoms: _340  and  _341
REMARK  148  A    between atoms: _341  and  _342
REMARK  149  A    between atoms: _347  and  _349
REMARK  150  A    between atoms: _349  and  _350
REMARK  151  A    between atoms: _352  and  _354
REMARK  152  A    between atoms: _354  and  _355
REMARK  153  A    between atoms: _354  and  _357
REMARK  154  A    between atoms: _357  and  _358
REMARK  155  A    between atoms: _361  and  _363
REMARK  156  A    between atoms: _363  and  _364
REMARK  157  A    between atoms: _363  and  _366
REMARK  158  A    between atoms: _366  and  _367
REMARK  159  A    between atoms: _369  and  _371
REMARK  160  A    between atoms: _371  and  _372
REMARK  161  A    between atoms: _374  and  _376
REMARK  162  A    between atoms: _376  and  _377
REMARK  163  A    between atoms: _379  and  _381
REMARK  164  A    between atoms: _381  and  _382
REMARK  165  A    between atoms: _381  and  _384
REMARK  166  A    between atoms: _384  and  _385
REMARK  167  A    between atoms: _390  and  _392
REMARK  168  A    between atoms: _392  and  _393
REMARK  169  A    between atoms: _392  and  _395
REMARK  170  A    between atoms: _395  and  _396
REMARK  171  A    between atoms: _399  and  _401
REMARK  172  A    between atoms: _401  and  _402
REMARK  173  A    between atoms: _401  and  _404
REMARK  174  A    between atoms: _407  and  _409
REMARK  175  A    between atoms: _409  and  _410
REMARK  176  A    between atoms: _409  and  _412
REMARK  177  A    between atoms: _412  and  _413
REMARK  178  A    between atoms: _415  and  _417
REMARK  179  A    between atoms: _417  and  _418
REMARK  180  A    between atoms: _417  and  _420
REMARK  181  A    between atoms: _420  and  _421
REMARK  182  A    between atoms: _431  and  _433
REMARK  183  A    between atoms: _433  and  _434
REMARK  184  A    between atoms: _436  and  _438
REMARK  185  A    between atoms: _438  and  _439
REMARK  186  A    between atoms: _438  and  _441
REMARK  187  A    between atoms: _441  and  _442
REMARK  188  A    between atoms: _442  and  _443
REMARK  189  A    between atoms: _446  and  _448
REMARK  190  A    between atoms: _448  and  _449
REMARK  191  A    between atoms: _451  and  _453
REMARK  192  A    between atoms: _453  and  _454
REMARK  193  A    between atoms: _453  and  _456
REMARK  194  A    between atoms: _456  and  _457
REMARK  195  A    between atoms: _458  and  _460
REMARK  196  A    between atoms: _460  and  _461
REMARK  197  A    between atoms: _464  and  _466
REMARK  198  A    between atoms: _466  and  _467
REMARK  199  A    between atoms: _466  and  _469
REMARK  200  A    between atoms: _469  and  _470
REMARK  201  A    between atoms: _470  and  _471
REMARK  202  A    between atoms: _471  and  _472
REMARK  203  A    between atoms: _481  and  _483
REMARK  204  A    between atoms: _483  and  _484
REMARK  205  A    between atoms: _483  and  _486
REMARK  206  A    between atoms: _486  and  _487
REMARK  207  A    between atoms: _487  and  _488
REMARK  208  A    between atoms: _488  and  _489
REMARK  209  A    between atoms: _489  and  _490
REMARK  210  A    between atoms: _494  and  _496
REMARK  211  A    between atoms: _496  and  _497
REMARK  212  A    between atoms: _496  and  _499
REMARK  213  A    between atoms: _499  and  _500
REMARK  214  A    between atoms: _505  and  _506
REMARK  215  A    between atoms: _508  and  _510
REMARK  216  A    between atoms: _510  and  _511
REMARK  217  A    between atoms: _513  and  _515
REMARK  218  A    between atoms: _515  and  _516
REMARK  219  A    between atoms: _515  and  _518
REMARK  220  A    between atoms: _518  and  _519
REMARK  221  A    between atoms: _522  and  _524
REMARK  222  A    between atoms: _524  and  _525
REMARK  223  A    between atoms: _524  and  _527
REMARK  224  A    between atoms: _527  and  _528
REMARK  225  A    between atoms: _533  and  _534
REMARK  226  A    between atoms: _536  and  _538
REMARK  227  A    between atoms: _538  and  _539
REMARK  228  A    between atoms: _538  and  _541
REMARK  229  A    between atoms: _541  and  _542
REMARK                            x       y       z     vdW  Elec       q    Type
REMARK                         _______ _______ _______ _____ _____    ______ ____
ROOT
ATOM      1  CB  HIS A   1      23.691  59.236   7.243  0.00  0.00    +0.072 C 
ENDROOT
BRANCH   1   2
ATOM      2  CG  HIS A   1      23.742  58.925   8.711  0.00  0.00    +0.082 A 
ATOM      3  CD2 HIS A   1      23.121  59.504   9.767  0.00  0.00    +0.115 A 
ATOM      4  NE2 HIS A   1      23.536  58.841  10.899  0.00  0.00    -0.221 NA
ATOM      5  CE1 HIS A   1      24.378  57.885  10.546  0.00  0.00    +0.199 A 
ATOM      6  ND1 HIS A   1      24.521  57.911   9.231  0.00  0.00    -0.227 NA
ENDBRANCH   1   2
BRANCH   1   7
ATOM      7  CA  HIS A   1      24.951  59.950   6.741  0.00  0.00    +0.139 C 
BRANCH   7   8
ATOM      8  N   HIS A   1      25.035  60.084   5.296  0.00  0.00    -0.239 NA
ATOM      9  H   HIS A   1      25.085  59.222   4.716  0.00  0.00    +0.142 HD
ENDBRANCH   7   8
BRANCH   7  10
ATOM     10  C   HIS A   1      26.165  59.025   6.942  0.00  0.00    +0.224 C 
ATOM     11  O   HIS A   1      26.233  57.897   6.386  0.00  0.00    -0.287 OA
ENDBRANCH   7  10
ENDBRANCH   1   7
TORSDOF 4
REMARK  Name = ../refined-set-2016/2xbw/2xbw_pocket.pdb
REMARK  229 active torsions:
REMARK  status: ('A' for Active; 'I' for Inactive)
REMARK    1  A    between atoms: _1  and  _5
REMARK    2  A    between atoms: _5  and  _6
REMARK    3  A    between atoms: _5  and  _8
REMARK    4  A    between atoms: _8  and  _9
REMARK    5  A    between atoms: _12  and  _14
REMARK    6  A    between atoms: _14  and  _15
REMARK    7  A    between atoms: _14  and  _17
REMARK    8  A    between atoms: _20  and  _22
REMARK    9  A    between atoms: _22  and  _23
REMARK   10  A    between atoms: _22  and  _25
REMARK   11  A    between atoms: _25  and  _26
REMARK   12  A    between atoms: _31  and  _33
REMARK   13  A    between atoms: _33  and  _34
REMARK   14  A    between atoms: _33  and  _36
REMARK   15  A    between atoms: _36  and  _37
REMARK   16  A    between atoms: _37  and  _38
REMARK   17  A    between atoms: _43  and  _45
REMARK   18  A    between atoms: _45  and  _46
REMARK   19  A    between atoms: _45  and  _48
REMARK   20  A    between atoms: _48  and  _49
REMARK   21  A    between atoms: _55  and  _57
REMARK   22  A    between atoms: _57  and  _58
REMARK   23  A    between atoms: _57  and  _60
REMARK   24  A    between atoms: _60  and  _61
REMARK   25  A    between atoms: _64  and  _66
REMARK   26  A    between atoms: _66  and  _67
REMARK   27  A    between atoms: _66  and  _69
REMARK   28  A    between atoms: _69  and  _70
REMARK   29  A    between atoms: _70  and  _71
REMARK   30  A    between atoms: _71  and  _72
REMARK   31  A    between atoms: _72  and  _73
REMARK   32  A    between atoms: _77  and  _79
REMARK   33  A    between atoms: _79  and  _80
REMARK   34  A    between atoms: _79  and  _82
REMARK   35  A    between atoms: _82  and  _83
REMARK   36  A    between atoms: _83  and  _84
REMARK   37  A    between atoms: _87  and  _89
REMARK   38  A    between atoms: _89  and  _90
REMARK   39  A    between atoms: _89  and  _92
REMARK   40  A    between atoms: _92  and  _93
REMARK   41  A    between atoms: _96  and  _98
REMARK   42  A    between atoms: _98  and  _99
REMARK   43  A    between atoms: _98  and  _101
REMARK   44  A    between atoms: _101  and  _102
REMARK   45  A    between atoms: _107  and  _108
REMARK   46  A    between atoms: _110  and  _112
REMARK   47  A    between atoms: _112  and  _113
REMARK   48  A    between atoms: _112  and  _115
REMARK   49  A    between atoms: _115  and  _116
REMARK   50  A    between atoms: _119  and  _121
REMARK   51  A    between atoms: _121  and  _122
REMARK   52  A    between atoms: _121  and  _124
REMARK   53  A    between atoms: _124  and  _125
REMARK   54  A    between atoms: _128  and  _130
REMARK   55  A    between atoms: _130  and  _131
REMARK   56  A    between atoms: _130  and  _133
REMARK   57  A    between atoms: _136  and  _138
REMARK   58  A    between atoms: _138  and  _139
REMARK   59  A    between atoms: _138  and  _141
REMARK   60  A    between atoms: _141  and  _142
REMARK   61  A    between atoms: _142  and  _143
REMARK   62  A    between atoms: _143  and  _144
REMARK   63  A    between atoms: _153  and  _155
REMARK   64  A    between atoms: _155  and  _156
REMARK   65  A    between atoms: _155  and  _158
REMARK   66  A    between atoms: _158  and  _159
REMARK   67  A    between atoms: _162  and  _164
REMARK   68  A    between atoms: _164  and  _165
REMARK   69  A    between atoms: _164  and  _167
REMARK   70  A    between atoms: _167  and  _168
REMARK   71  A    between atoms: _173  and  _175
REMARK   72  A    between atoms: _175  and  _176
REMARK   73  A    between atoms: _175  and  _178
REMARK   74  A    between atoms: _178  and  _179
REMARK   75  A    between atoms: _179  and  _180
REMARK   76  A    between atoms: _183  and  _185
REMARK   77  A    between atoms: _185  and  _186
REMARK   78  A    between atoms: _185  and  _188
REMARK   79  A    between atoms: _188  and  _189
REMARK   80  A    between atoms: _189  and  _190
REMARK   81  A    between atoms: _190  and  _191
REMARK   82  A    between atoms: _191  and  _192
REMARK   83  A    between atoms: _196  and  _198
REMARK   84  A    between atoms: _198  and  _199
REMARK   85  A    between atoms: _201  and  _203
REMARK   86  A    between atoms: _203  and  _204
REMARK   87  A    between atoms: _203  and  _206
REMARK   88  A    between atoms: _209  and  _211
REMARK   89  A    between atoms: _211  and  _212
REMARK   90  A    between atoms: _211  and  _214
REMARK   91  A    between atoms: _214  and  _215
REMARK   92  A    between atoms: _217  and  _219
REMARK   93  A    between atoms: _219  and  _220
REMARK   94  A    between atoms: _219  and  _222
REMARK   95  A    between atoms: _222  and  _223
REMARK   96  A    between atoms: _225  and  _227
REMARK   97  A    between atoms: _227  and  _228
REMARK   98  A    between atoms: _227  and  _230
REMARK   99  A    between atoms: _230  and  _231
REMARK  100  A    between atoms: _237  and  _239
REMARK  101  A    between atoms: _239  and  _240
REMARK  102  A    between atoms: _239  and  _242
REMARK  103  A    between atoms: _242  and  _243
REMARK  104  A    between atoms: _246  and  _248
REMARK  105  A    between atoms: _248  and  _249
REMARK  106  A    between atoms: _248  and  _251
REMARK  107  A    between atoms: _251  and  _252
REMARK  108  A    between atoms: _255  and  _257
REMARK  109  A    between atoms: _257  and  _258
REMARK  110  A    between atoms: _257  and  _260
REMARK  111  A    between atoms: _260  and  _261
REMARK  112  A    between atoms: _264  and  _266
REMARK  113  A    between atoms: _266  and  _267
REMARK  114  A    between atoms: _266  and  _269
REMARK  115  A    between atoms: _269  and  _270
REMARK  116  A    between atoms: _270  and  _271
REMARK  117  A    between atoms: _273  and  _275
REMARK  118  A    between atoms: _275  and  _276
REMARK  119  A    between atoms: _275  and  _278
REMARK  120  A    between atoms: _278  and  _279
REMARK  121  A    between atoms: _285  and  _287
REMARK  122  A    between atoms: _287  and  _288
REMARK  123  A    between atoms: _287  and  _290
REMARK  124  A    between atoms: _292  and  _294
REMARK  125  A    between atoms: _294  and  _295
REMARK  126  A    between atoms: _298  and  _300
REMARK  127  A    between atoms: _300  and  _301
REMARK  128  A    between atoms: _303  and  _305
REMARK  129  A    between atoms: _305  and  _306
REMARK  130  A    between atoms: _305  and  _308
REMARK  131  A    between atoms: _308  and  _309
REMARK  132  A    between atoms: _309  and  _310
REMARK  133  A    between atoms: _313  and  _315
REMARK  134  A    between atoms: _315  and  _316
REMARK  135  A    between atoms: _315  and  _318
REMARK  136  A    between atoms: _318  and  _319
REMARK  137  A    between atoms: _322  and  _324
REMARK  138  A    between atoms: _324  and  _325
REMARK  139  A    between atoms: _328  and  _330
REMARK  140  A    between atoms: _330  and  _331
REMARK  141  A    between atoms: _330  and  _333
REMARK  142  A    between atoms: _333  and  _334
REMARK  143  A    between atoms: _334  and  _457
REMARK  144  A    between atoms: _335  and  _337
REMARK  145  A    between atoms: _337  and  _338
REMARK  146  A    between atoms: _337  and  _340
REMARK  147  A    between atoms: _340  and  _341
REMARK  148  A    between atoms: _341  and  _342
REMARK  149  A    between atoms: _347  and  _349
REMARK  150  A    between atoms: _349  and  _350
REMARK  151  A    between atoms: _352  and  _354
REMARK  152  A    between atoms: _354  and  _355
REMARK  153  A    between atoms: _354  and  _357
REMARK  154  A    between atoms: _357  and  _358
REMARK  155  A    between atoms: _361  and  _363
REMARK  156  A    between atoms: _363  and  _364
REMARK  157  A    between atoms: _363  and  _366
REMARK  158  A    between atoms: _366  and  _367
REMARK  159  A    between atoms: _369  and  _371
REMARK  160  A    between atoms: _371  and  _372
REMARK  161  A    between atoms: _374  and  _376
REMARK  162  A    between atoms: _376  and  _377
REMARK  163  A    between atoms: _379  and  _381
REMARK  164  A    between atoms: _381  and  _382
REMARK  165  A    between atoms: _381  and  _384
REMARK  166  A    between atoms: _384  and  _385
REMARK  167  A    between atoms: _390  and  _392
REMARK  168  A    between atoms: _392  and  _393
REMARK  169  A    between atoms: _392  and  _395
REMARK  170  A    between atoms: _395  and  _396
REMARK  171  A    between atoms: _399  and  _401
REMARK  172  A    between atoms: _401  and  _402
REMARK  173  A    between atoms: _401  and  _404
REMARK  174  A    between atoms: _407  and  _409
REMARK  175  A    between atoms: _409  and  _410
REMARK  176  A    between atoms: _409  and  _412
REMARK  177  A    between atoms: _412  and  _413
REMARK  178  A    between atoms: _415  and  _417
REMARK  179  A    between atoms: _417  and  _418
REMARK  180  A    between atoms: _417  and  _420
REMARK  181  A    between atoms: _420  and  _421
REMARK  182  A    between atoms: _431  and  _433
REMARK  183  A    between atoms: _433  and  _434
REMARK  184  A    between atoms: _436  and  _438
REMARK  185  A    between atoms: _438  and  _439
REMARK  186  A    between atoms: _438  and  _441
REMARK  187  A    between atoms: _441  and  _442
REMARK  188  A    between atoms: _442  and  _443
REMARK  189  A    between atoms: _446  and  _448
REMARK  190  A    between atoms: _448  and  _449
REMARK  191  A    between atoms: _451  and  _453
REMARK  192  A    between atoms: _453  and  _454
REMARK  193  A    between atoms: _453  and  _456
REMARK  194  A    between atoms: _456  and  _457
REMARK  195  A    between atoms: _458  and  _460
REMARK  196  A    between atoms: _460  and  _461
REMARK  197  A    between atoms: _464  and  _466
REMARK  198  A    between atoms: _466  and  _467
REMARK  199  A    between atoms: _466  and  _469
REMARK  200  A    between atoms: _469  and  _470
REMARK  201  A    between atoms: _470  and  _471
REMARK  202  A    between atoms: _471  and  _472
REMARK  203  A    between atoms: _481  and  _483
REMARK  204  A    between atoms: _483  and  _484
REMARK  205  A    between atoms: _483  and  _486
REMARK  206  A    between atoms: _486  and  _487
REMARK  207  A    between atoms: _487  and  _488
REMARK  208  A    between atoms: _488  and  _489
REMARK  209  A    between atoms: _489  and  _490
REMARK  210  A    between atoms: _494  and  _496
REMARK  211  A    between atoms: _496  and  _497
REMARK  212  A    between atoms: _496  and  _499
REMARK  213  A    between atoms: _499  and  _500
REMARK  214  A    between atoms: _505  and  _506
REMARK  215  A    between atoms: _508  and  _510
REMARK  216  A    between atoms: _510  and  _511
REMARK  217  A    between atoms: _513  and  _515
REMARK  218  A    between atoms: _515  and  _516
REMARK  219  A    between atoms: _515  and  _518
REMARK  220  A    between atoms: _518  and  _519
REMARK  221  A    between atoms: _522  and  _524
REMARK  222  A    between atoms: _524  and  _525
REMARK  223  A    between atoms: _524  and  _527
REMARK  224  A    between atoms: _527  and  _528
REMARK  225  A    between atoms: _533  and  _534
REMARK  226  A    between atoms: _536  and  _538
REMARK  227  A    between atoms: _538  and  _539
REMARK  228  A    between atoms: _538  and  _541
REMARK  229  A    between atoms: _541  and  _542
REMARK                            x       y       z     vdW  Elec       q    Type
REMARK                         _______ _______ _______ _____ _____    ______ ____
ROOT
ATOM      1  C   GLY A   3      15.068  60.509  10.178  0.00  0.00    +0.243 C 
ATOM      2  O   GLY A   3      15.541  59.714  10.996  0.00  0.00    -0.273 OA
ATOM      3  N   ILE A   4      14.599  60.125   8.986  0.00  0.00    -0.297 N 
ATOM      4  H   ILE A   4      14.213  60.837   8.334  0.00  0.00    +0.150 HD
ENDROOT
BRANCH   3   5
ATOM      5  CA  ILE A   4      14.621  58.714   8.584  0.00  0.00    +0.149 C 
BRANCH   5   6
ATOM      6  C   ILE A   4      15.629  58.538   7.454  0.00  0.00    +0.241 C 
ATOM      7  N   TYR A   5      16.493  57.559   7.634  0.00  0.00    -0.297 N 
ATOM      8  H   TYR A   5      16.396  56.968   8.484  0.00  0.00    +0.150 HD
ATOM      9  O   ILE A   4      15.614  59.260   6.440  0.00  0.00    -0.273 OA
BRANCH   7  10
ATOM     10  CA  TYR A   5      17.572  57.261   6.711  0.00  0.00    +0.153 C 
BRANCH  10  11
ATOM     11  C   TYR A   5      17.513  55.872   6.177  0.00  0.00    +0.241 C 
ATOM     12  O   TYR A   5      17.082  54.950   6.870  0.00  0.00    -0.273 OA
ATOM     13  N   THR A   6      17.939  55.692   4.934  0.00  0.00    -0.296 N 
ATOM     14  H   THR A   6      18.230  56.508   4.358  0.00  0.00    +0.150 HD
BRANCH  13  15
ATOM     15  CA  THR A   6      17.998  54.348   4.379  0.00  0.00    +0.164 C 
BRANCH  15  16
ATOM     16  C   THR A   6      19.183  53.691   5.102  0.00  0.00    +0.229 C 
ATOM     17  O   THR A   6      20.252  54.284   5.227  0.00  0.00    -0.286 OA
ENDBRANCH  15  16
BRANCH  15  18
ATOM     18  CB  THR A   6      18.309  54.379   2.871  0.00  0.00    +0.136 C 
ATOM     19  CG2 THR A   6      18.376  52.969   2.281  0.00  0.00    +0.034 C 
BRANCH  18  20
ATOM     20  OG1 THR A   6      17.267  55.109   2.237  0.00  0.00    -0.382 OA
ATOM     21  HG1 THR A   6      17.438  55.147   1.263  0.00  0.00    +0.210 HD
ENDBRANCH  18  20
ENDBRANCH  15  18
ENDBRANCH  13  15
ENDBRANCH  10  11
BRANCH  10  22
ATOM     22  CB  TYR A   5      18.911  57.435   7.456  0.00  0.00    +0.055 C 
BRANCH  22  23
ATOM     23  CG  TYR A   5      19.131  58.842   7.988  0.00  0.00    -0.020 A 
ATOM     24  CD2 TYR A   5      18.490  59.289   9.138  0.00  0.00    -0.001 A 
ATOM     25  CE2 TYR A   5      18.679  60.583   9.608  0.00  0.00    +0.036 A 
ATOM     26  CZ  TYR A   5      19.529  61.445   8.913  0.00  0.00    +0.134 A 
ATOM     27  CE1 TYR A   5      20.169  61.011   7.774  0.00  0.00    +0.036 A 
ATOM     28  CD1 TYR A   5      19.969  59.720   7.318  0.00  0.00    -0.001 A 
BRANCH  26  29
ATOM     29  OH  TYR A   5      19.735  62.741   9.350  0.00  0.00    -0.506 OA
ATOM     30  HH  TYR A   5      18.872  63.225   9.362  0.00  0.00    +0.292 HD
ENDBRANCH  26  29
ENDBRANCH  22  23
ENDBRANCH  10  22
ENDBRANCH   7  10
ENDBRANCH   5   6
BRANCH   5  31
ATOM     31  CB  ILE A   4      13.236  58.234   8.107  0.00  0.00    +0.027 C 
ATOM     32  CG2 ILE A   4      13.230  56.684   7.992  0.00  0.00    +0.002 C 
BRANCH  31  33
ATOM     33  CG1 ILE A   4      12.137  58.833   9.011  0.00  0.00    +0.002 C 
ATOM     34  CD1 ILE A   4      12.153  58.393  10.438  0.00  0.00    +0.000 C 
ENDBRANCH  31  33
ENDBRANCH   5  31
ENDBRANCH   3   5
BRANCH   1  35
ATOM     35  CA  GLY A   3      15.001  62.000  10.521  0.00  0.00    +0.176 C 
BRANCH  35  37
ATOM     36  C   TYR A   2      13.334  62.204  12.256  0.00  0.00    +0.241 C 
ATOM     37  N   GLY A   3      14.614  62.109  11.919  0.00  0.00    -0.295 N 
ATOM     38  H   GLY A   3      15.345  62.113  12.659  0.00  0.00    +0.150 HD
ATOM     39  O   TYR A   2      12.419  62.255  11.426  0.00  0.00    -0.273 OA
BRANCH  36  40
ATOM     40  CA  TYR A   2      13.045  62.257  13.759  0.00  0.00    +0.153 C 
BRANCH  40  43
ATOM     41  C   LYS A   1      11.194  63.503  14.728  0.00  0.00    +0.238 C 
ATOM     42  O   LYS A   1      11.954  64.348  15.198  0.00  0.00    -0.274 OA
ATOM     43  N   TYR A   2      11.630  62.467  14.031  0.00  0.00    -0.297 N 
ATOM     44  H   TYR A   2      10.940  61.780  13.665  0.00  0.00    +0.150 HD
BRANCH  41  45
ATOM     45  CA  LYS A   1       9.678  63.599  14.956  0.00  0.00    +0.145 C 
BRANCH  45  46
ATOM     46  N   LYS A   1       9.431  64.292  16.222  0.00  0.00    -0.238 NA
ATOM     47  H   LYS A   1       9.906  65.201  16.393  0.00  0.00    +0.142 HD
ENDBRANCH  45  46
BRANCH  45  48
ATOM     48  CB  LYS A   1       9.009  64.372  13.790  0.00  0.00    +0.026 C 
BRANCH  48  49
ATOM     49  CG  LYS A   1       7.477  64.313  13.808  0.00  0.00    -0.000 C 
BRANCH  49  50
ATOM     50  CD  LYS A   1       6.948  62.929  13.393  0.00  0.00    -0.024 C 
BRANCH  50  51
ATOM     51  CE  LYS A   1       5.412  62.801  13.563  0.00  0.00    -0.086 C 
BRANCH  51  52
ATOM     52  NZ  LYS A   1       5.067  62.892  14.994  0.00  0.00    +0.380 N 
ATOM     53  HZ1 LYS A   1       5.539  62.124  15.513  0.00  0.00    -0.089 HD
ATOM     54  HZ2 LYS A   1       5.383  63.810  15.368  0.00  0.00    -0.089 HD
ATOM     55  HZ3 LYS A   1       4.037  62.806  15.107  0.00  0.00    -0.089 HD
ENDBRANCH  51  52
ENDBRANCH  50  51
ENDBRANCH  49  50
ENDBRANCH  48  49
ENDBRANCH  45  48
ENDBRANCH  41  45
ENDBRANCH  40  43
BRANCH  40  56
ATOM     56  CB  TYR A   2      13.470  60.929  14.348  0.00  0.00    +0.055 C 
BRANCH  56  57
ATOM     57  CG  TYR A   2      13.228  60.874  15.827  0.00  0.00    -0.020 A 
ATOM     58  CD2 TYR A   2      14.072  61.543  16.708  0.00  0.00    -0.001 A 
ATOM     59  CE2 TYR A   2      13.854  61.511  18.081  0.00  0.00    +0.036 A 
ATOM     60  CZ  TYR A   2      12.762  60.791  18.566  0.00  0.00    +0.134 A 
ATOM     61  CE1 TYR A   2      11.906  60.119  17.706  0.00  0.00    +0.036 A 
ATOM     62  CD1 TYR A   2      12.145  60.164  16.339  0.00  0.00    -0.001 A 
BRANCH  60  63
ATOM     63  OH  TYR A   2      12.530  60.729  19.918  0.00  0.00    -0.506 OA
ATOM     64  HH  TYR A   2      11.635  61.102  20.115  0.00  0.00    +0.292 HD
ENDBRANCH  60  63
ENDBRANCH  56  57
ENDBRANCH  40  56
ENDBRANCH  36  40
ENDBRANCH  35  37
ENDBRANCH   1  35
TORSDOF 27
REMARK  Name = ../refined-set-2016/2xbw/2xbw_pocket.pdb
REMARK  229 active torsions:
REMARK  status: ('A' for Active; 'I' for Inactive)
REMARK    1  A    between atoms: _1  and  _5
REMARK    2  A    between atoms: _5  and  _6
REMARK    3  A    between atoms: _5  and  _8
REMARK    4  A    between atoms: _8  and  _9
REMARK    5  A    between atoms: _12  and  _14
REMARK    6  A    between atoms: _14  and  _15
REMARK    7  A    between atoms: _14  and  _17
REMARK    8  A    between atoms: _20  and  _22
REMARK    9  A    between atoms: _22  and  _23
REMARK   10  A    between atoms: _22  and  _25
REMARK   11  A    between atoms: _25  and  _26
REMARK   12  A    between atoms: _31  and  _33
REMARK   13  A    between atoms: _33  and  _34
REMARK   14  A    between atoms: _33  and  _36
REMARK   15  A    between atoms: _36  and  _37
REMARK   16  A    between atoms: _37  and  _38
REMARK   17  A    between atoms: _43  and  _45
REMARK   18  A    between atoms: _45  and  _46
REMARK   19  A    between atoms: _45  and  _48
REMARK   20  A    between atoms: _48  and  _49
REMARK   21  A    between atoms: _55  and  _57
REMARK   22  A    between atoms: _57  and  _58
REMARK   23  A    between atoms: _57  and  _60
REMARK   24  A    between atoms: _60  and  _61
REMARK   25  A    between atoms: _64  and  _66
REMARK   26  A    between atoms: _66  and  _67
REMARK   27  A    between atoms: _66  and  _69
REMARK   28  A    between atoms: _69  and  _70
REMARK   29  A    between atoms: _70  and  _71
REMARK   30  A    between atoms: _71  and  _72
REMARK   31  A    between atoms: _72  and  _73
REMARK   32  A    between atoms: _77  and  _79
REMARK   33  A    between atoms: _79  and  _80
REMARK   34  A    between atoms: _79  and  _82
REMARK   35  A    between atoms: _82  and  _83
REMARK   36  A    between atoms: _83  and  _84
REMARK   37  A    between atoms: _87  and  _89
REMARK   38  A    between atoms: _89  and  _90
REMARK   39  A    between atoms: _89  and  _92
REMARK   40  A    between atoms: _92  and  _93
REMARK   41  A    between atoms: _96  and  _98
REMARK   42  A    between atoms: _98  and  _99
REMARK   43  A    between atoms: _98  and  _101
REMARK   44  A    between atoms: _101  and  _102
REMARK   45  A    between atoms: _107  and  _108
REMARK   46  A    between atoms: _110  and  _112
REMARK   47  A    between atoms: _112  and  _113
REMARK   48  A    between atoms: _112  and  _115
REMARK   49  A    between atoms: _115  and  _116
REMARK   50  A    between atoms: _119  and  _121
REMARK   51  A    between atoms: _121  and  _122
REMARK   52  A    between atoms: _121  and  _124
REMARK   53  A    between atoms: _124  and  _125
REMARK   54  A    between atoms: _128  and  _130
REMARK   55  A    between atoms: _130  and  _131
REMARK   56  A    between atoms: _130  and  _133
REMARK   57  A    between atoms: _136  and  _138
REMARK   58  A    between atoms: _138  and  _139
REMARK   59  A    between atoms: _138  and  _141
REMARK   60  A    between atoms: _141  and  _142
REMARK   61  A    between atoms: _142  and  _143
REMARK   62  A    between atoms: _143  and  _144
REMARK   63  A    between atoms: _153  and  _155
REMARK   64  A    between atoms: _155  and  _156
REMARK   65  A    between atoms: _155  and  _158
REMARK   66  A    between atoms: _158  and  _159
REMARK   67  A    between atoms: _162  and  _164
REMARK   68  A    between atoms: _164  and  _165
REMARK   69  A    between atoms: _164  and  _167
REMARK   70  A    between atoms: _167  and  _168
REMARK   71  A    between atoms: _173  and  _175
REMARK   72  A    between atoms: _175  and  _176
REMARK   73  A    between atoms: _175  and  _178
REMARK   74  A    between atoms: _178  and  _179
REMARK   75  A    between atoms: _179  and  _180
REMARK   76  A    between atoms: _183  and  _185
REMARK   77  A    between atoms: _185  and  _186
REMARK   78  A    between atoms: _185  and  _188
REMARK   79  A    between atoms: _188  and  _189
REMARK   80  A    between atoms: _189  and  _190
REMARK   81  A    between atoms: _190  and  _191
REMARK   82  A    between atoms: _191  and  _192
REMARK   83  A    between atoms: _196  and  _198
REMARK   84  A    between atoms: _198  and  _199
REMARK   85  A    between atoms: _201  and  _203
REMARK   86  A    between atoms: _203  and  _204
REMARK   87  A    between atoms: _203  and  _206
REMARK   88  A    between atoms: _209  and  _211
REMARK   89  A    between atoms: _211  and  _212
REMARK   90  A    between atoms: _211  and  _214
REMARK   91  A    between atoms: _214  and  _215
REMARK   92  A    between atoms: _217  and  _219
REMARK   93  A    between atoms: _219  and  _220
REMARK   94  A    between atoms: _219  and  _222
REMARK   95  A    between atoms: _222  and  _223
REMARK   96  A    between atoms: _225  and  _227
REMARK   97  A    between atoms: _227  and  _228
REMARK   98  A    between atoms: _227  and  _230
REMARK   99  A    between atoms: _230  and  _231
REMARK  100  A    between atoms: _237  and  _239
REMARK  101  A    between atoms: _239  and  _240
REMARK  102  A    between atoms: _239  and  _242
REMARK  103  A    between atoms: _242  and  _243
REMARK  104  A    between atoms: _246  and  _248
REMARK  105  A    between atoms: _248  and  _249
REMARK  106  A    between atoms: _248  and  _251
REMARK  107  A    between atoms: _251  and  _252
REMARK  108  A    between atoms: _255  and  _257
REMARK  109  A    between atoms: _257  and  _258
REMARK  110  A    between atoms: _257  and  _260
REMARK  111  A    between atoms: _260  and  _261
REMARK  112  A    between atoms: _264  and  _266
REMARK  113  A    between atoms: _266  and  _267
REMARK  114  A    between atoms: _266  and  _269
REMARK  115  A    between atoms: _269  and  _270
REMARK  116  A    between atoms: _270  and  _271
REMARK  117  A    between atoms: _273  and  _275
REMARK  118  A    between atoms: _275  and  _276
REMARK  119  A    between atoms: _275  and  _278
REMARK  120  A    between atoms: _278  and  _279
REMARK  121  A    between atoms: _285  and  _287
REMARK  122  A    between atoms: _287  and  _288
REMARK  123  A    between atoms: _287  and  _290
REMARK  124  A    between atoms: _292  and  _294
REMARK  125  A    between atoms: _294  and  _295
REMARK  126  A    between atoms: _298  and  _300
REMARK  127  A    between atoms: _300  and  _301
REMARK  128  A    between atoms: _303  and  _305
REMARK  129  A    between atoms: _305  and  _306
REMARK  130  A    between atoms: _305  and  _308
REMARK  131  A    between atoms: _308  and  _309
REMARK  132  A    between atoms: _309  and  _310
REMARK  133  A    between atoms: _313  and  _315
REMARK  134  A    between atoms: _315  and  _316
REMARK  135  A    between atoms: _315  and  _318
REMARK  136  A    between atoms: _318  and  _319
REMARK  137  A    between atoms: _322  and  _324
REMARK  138  A    between atoms: _324  and  _325
REMARK  139  A    between atoms: _328  and  _330
REMARK  140  A    between atoms: _330  and  _331
REMARK  141  A    between atoms: _330  and  _333
REMARK  142  A    between atoms: _333  and  _334
REMARK  143  A    between atoms: _334  and  _457
REMARK  144  A    between atoms: _335  and  _337
REMARK  145  A    between atoms: _337  and  _338
REMARK  146  A    between atoms: _337  and  _340
REMARK  147  A    between atoms: _340  and  _341
REMARK  148  A    between atoms: _341  and  _342
REMARK  149  A    between atoms: _347  and  _349
REMARK  150  A    between atoms: _349  and  _350
REMARK  151  A    between atoms: _352  and  _354
REMARK  152  A    between atoms: _354  and  _355
REMARK  153  A    between atoms: _354  and  _357
REMARK  154  A    between atoms: _357  and  _358
REMARK  155  A    between atoms: _361  and  _363
REMARK  156  A    between atoms: _363  and  _364
REMARK  157  A    between atoms: _363  and  _366
REMARK  158  A    between atoms: _366  and  _367
REMARK  159  A    between atoms: _369  and  _371
REMARK  160  A    between atoms: _371  and  _372
REMARK  161  A    between atoms: _374  and  _376
REMARK  162  A    between atoms: _376  and  _377
REMARK  163  A    between atoms: _379  and  _381
REMARK  164  A    between atoms: _381  and  _382
REMARK  165  A    between atoms: _381  and  _384
REMARK  166  A    between atoms: _384  and  _385
REMARK  167  A    between atoms: _390  and  _392
REMARK  168  A    between atoms: _392  and  _393
REMARK  169  A    between atoms: _392  and  _395
REMARK  170  A    between atoms: _395  and  _396
REMARK  171  A    between atoms: _399  and  _401
REMARK  172  A    between atoms: _401  and  _402
REMARK  173  A    between atoms: _401  and  _404
REMARK  174  A    between atoms: _407  and  _409
REMARK  175  A    between atoms: _409  and  _410
REMARK  176  A    between atoms: _409  and  _412
REMARK  177  A    between atoms: _412  and  _413
REMARK  178  A    between atoms: _415  and  _417
REMARK  179  A    between atoms: _417  and  _418
REMARK  180  A    between atoms: _417  and  _420
REMARK  181  A    between atoms: _420  and  _421
REMARK  182  A    between atoms: _431  and  _433
REMARK  183  A    between atoms: _433  and  _434
REMARK  184  A    between atoms: _436  and  _438
REMARK  185  A    between atoms: _438  and  _439
REMARK  186  A    between atoms: _438  and  _441
REMARK  187  A    between atoms: _441  and  _442
REMARK  188  A    between atoms: _442  and  _443
REMARK  189  A    between atoms: _446  and  _448
REMARK  190  A    between atoms: _448  and  _449
REMARK  191  A    between atoms: _451  and  _453
REMARK  192  A    between atoms: _453  and  _454
REMARK  193  A    between atoms: _453  and  _456
REMARK  194  A    between atoms: _456  and  _457
REMARK  195  A    between atoms: _458  and  _460
REMARK  196  A    between atoms: _460  and  _461
REMARK  197  A    between atoms: _464  and  _466
REMARK  198  A    between atoms: _466  and  _467
REMARK  199  A    between atoms: _466  and  _469
REMARK  200  A    between atoms: _469  and  _470
REMARK  201  A    between atoms: _470  and  _471
REMARK  202  A    between atoms: _471  and  _472
REMARK  203  A    between atoms: _481  and  _483
REMARK  204  A    between atoms: _483  and  _484
REMARK  205  A    between atoms: _483  and  _486
REMARK  206  A    between atoms: _486  and  _487
REMARK  207  A    between atoms: _487  and  _488
REMARK  208  A    between atoms: _488  and  _489
REMARK  209  A    between atoms: _489  and  _490
REMARK  210  A    between atoms: _494  and  _496
REMARK  211  A    between atoms: _496  and  _497
REMARK  212  A    between atoms: _496  and  _499
REMARK  213  A    between atoms: _499  and  _500
REMARK  214  A    between atoms: _505  and  _506
REMARK  215  A    between atoms: _508  and  _510
REMARK  216  A    between atoms: _510  and  _511
REMARK  217  A    between atoms: _513  and  _515
REMARK  218  A    between atoms: _515  and  _516
REMARK  219  A    between atoms: _515  and  _518
REMARK  220  A    between atoms: _518  and  _519
REMARK  221  A    between atoms: _522  and  _524
REMARK  222  A    between atoms: _524  and  _525
REMARK  223  A    between atoms: _524  and  _527
REMARK  224  A    between atoms: _527  and  _528
REMARK  225  A    between atoms: _533  and  _534
REMARK  226  A    between atoms: _536  and  _538
REMARK  227  A    between atoms: _538  and  _539
REMARK  228  A    between atoms: _538  and  _541
REMARK  229  A    between atoms: _541  and  _542
REMARK                            x       y       z     vdW  Elec       q    Type
REMARK                         _______ _______ _______ _____ _____    ______ ____
ROOT
ATOM      1  O   HOH     1      15.435  66.877  -2.076  0.00  0.00    +0.000 OA
ENDROOT
TORSDOF 0
REMARK  Name = ../refined-set-2016/2xbw/2xbw_pocket.pdb
REMARK  229 active torsions:
REMARK  status: ('A' for Active; 'I' for Inactive)
REMARK    1  A    between atoms: _1  and  _5
REMARK    2  A    between atoms: _5  and  _6
REMARK    3  A    between atoms: _5  and  _8
REMARK    4  A    between atoms: _8  and  _9
REMARK    5  A    between atoms: _12  and  _14
REMARK    6  A    between atoms: _14  and  _15
REMARK    7  A    between atoms: _14  and  _17
REMARK    8  A    between atoms: _20  and  _22
REMARK    9  A    between atoms: _22  and  _23
REMARK   10  A    between atoms: _22  and  _25
REMARK   11  A    between atoms: _25  and  _26
REMARK   12  A    between atoms: _31  and  _33
REMARK   13  A    between atoms: _33  and  _34
REMARK   14  A    between atoms: _33  and  _36
REMARK   15  A    between atoms: _36  and  _37
REMARK   16  A    between atoms: _37  and  _38
REMARK   17  A    between atoms: _43  and  _45
REMARK   18  A    between atoms: _45  and  _46
REMARK   19  A    between atoms: _45  and  _48
REMARK   20  A    between atoms: _48  and  _49
REMARK   21  A    between atoms: _55  and  _57
REMARK   22  A    between atoms: _57  and  _58
REMARK   23  A    between atoms: _57  and  _60
REMARK   24  A    between atoms: _60  and  _61
REMARK   25  A    between atoms: _64  and  _66
REMARK   26  A    between atoms: _66  and  _67
REMARK   27  A    between atoms: _66  and  _69
REMARK   28  A    between atoms: _69  and  _70
REMARK   29  A    between atoms: _70  and  _71
REMARK   30  A    between atoms: _71  and  _72
REMARK   31  A    between atoms: _72  and  _73
REMARK   32  A    between atoms: _77  and  _79
REMARK   33  A    between atoms: _79  and  _80
REMARK   34  A    between atoms: _79  and  _82
REMARK   35  A    between atoms: _82  and  _83
REMARK   36  A    between atoms: _83  and  _84
REMARK   37  A    between atoms: _87  and  _89
REMARK   38  A    between atoms: _89  and  _90
REMARK   39  A    between atoms: _89  and  _92
REMARK   40  A    between atoms: _92  and  _93
REMARK   41  A    between atoms: _96  and  _98
REMARK   42  A    between atoms: _98  and  _99
REMARK   43  A    between atoms: _98  and  _101
REMARK   44  A    between atoms: _101  and  _102
REMARK   45  A    between atoms: _107  and  _108
REMARK   46  A    between atoms: _110  and  _112
REMARK   47  A    between atoms: _112  and  _113
REMARK   48  A    between atoms: _112  and  _115
REMARK   49  A    between atoms: _115  and  _116
REMARK   50  A    between atoms: _119  and  _121
REMARK   51  A    between atoms: _121  and  _122
REMARK   52  A    between atoms: _121  and  _124
REMARK   53  A    between atoms: _124  and  _125
REMARK   54  A    between atoms: _128  and  _130
REMARK   55  A    between atoms: _130  and  _131
REMARK   56  A    between atoms: _130  and  _133
REMARK   57  A    between atoms: _136  and  _138
REMARK   58  A    between atoms: _138  and  _139
REMARK   59  A    between atoms: _138  and  _141
REMARK   60  A    between atoms: _141  and  _142
REMARK   61  A    between atoms: _142  and  _143
REMARK   62  A    between atoms: _143  and  _144
REMARK   63  A    between atoms: _153  and  _155
REMARK   64  A    between atoms: _155  and  _156
REMARK   65  A    between atoms: _155  and  _158
REMARK   66  A    between atoms: _158  and  _159
REMARK   67  A    between atoms: _162  and  _164
REMARK   68  A    between atoms: _164  and  _165
REMARK   69  A    between atoms: _164  and  _167
REMARK   70  A    between atoms: _167  and  _168
REMARK   71  A    between atoms: _173  and  _175
REMARK   72  A    between atoms: _175  and  _176
REMARK   73  A    between atoms: _175  and  _178
REMARK   74  A    between atoms: _178  and  _179
REMARK   75  A    between atoms: _179  and  _180
REMARK   76  A    between atoms: _183  and  _185
REMARK   77  A    between atoms: _185  and  _186
REMARK   78  A    between atoms: _185  and  _188
REMARK   79  A    between atoms: _188  and  _189
REMARK   80  A    between atoms: _189  and  _190
REMARK   81  A    between atoms: _190  and  _191
REMARK   82  A    between atoms: _191  and  _192
REMARK   83  A    between atoms: _196  and  _198
REMARK   84  A    between atoms: _198  and  _199
REMARK   85  A    between atoms: _201  and  _203
REMARK   86  A    between atoms: _203  and  _204
REMARK   87  A    between atoms: _203  and  _206
REMARK   88  A    between atoms: _209  and  _211
REMARK   89  A    between atoms: _211  and  _212
REMARK   90  A    between atoms: _211  and  _214
REMARK   91  A    between atoms: _214  and  _215
REMARK   92  A    between atoms: _217  and  _219
REMARK   93  A    between atoms: _219  and  _220
REMARK   94  A    between atoms: _219  and  _222
REMARK   95  A    between atoms: _222  and  _223
REMARK   96  A    between atoms: _225  and  _227
REMARK   97  A    between atoms: _227  and  _228
REMARK   98  A    between atoms: _227  and  _230
REMARK   99  A    between atoms: _230  and  _231
REMARK  100  A    between atoms: _237  and  _239
REMARK  101  A    between atoms: _239  and  _240
REMARK  102  A    between atoms: _239  and  _242
REMARK  103  A    between atoms: _242  and  _243
REMARK  104  A    between atoms: _246  and  _248
REMARK  105  A    between atoms: _248  and  _249
REMARK  106  A    between atoms: _248  and  _251
REMARK  107  A    between atoms: _251  and  _252
REMARK  108  A    between atoms: _255  and  _257
REMARK  109  A    between atoms: _257  and  _258
REMARK  110  A    between atoms: _257  and  _260
REMARK  111  A    between atoms: _260  and  _261
REMARK  112  A    between atoms: _264  and  _266
REMARK  113  A    between atoms: _266  and  _267
REMARK  114  A    between atoms: _266  and  _269
REMARK  115  A    between atoms: _269  and  _270
REMARK  116  A    between atoms: _270  and  _271
REMARK  117  A    between atoms: _273  and  _275
REMARK  118  A    between atoms: _275  and  _276
REMARK  119  A    between atoms: _275  and  _278
REMARK  120  A    between atoms: _278  and  _279
REMARK  121  A    between atoms: _285  and  _287
REMARK  122  A    between atoms: _287  and  _288
REMARK  123  A    between atoms: _287  and  _290
REMARK  124  A    between atoms: _292  and  _294
REMARK  125  A    between atoms: _294  and  _295
REMARK  126  A    between atoms: _298  and  _300
REMARK  127  A    between atoms: _300  and  _301
REMARK  128  A    between atoms: _303  and  _305
REMARK  129  A    between atoms: _305  and  _306
REMARK  130  A    between atoms: _305  and  _308
REMARK  131  A    between atoms: _308  and  _309
REMARK  132  A    between atoms: _309  and  _310
REMARK  133  A    between atoms: _313  and  _315
REMARK  134  A    between atoms: _315  and  _316
REMARK  135  A    between atoms: _315  and  _318
REMARK  136  A    between atoms: _318  and  _319
REMARK  137  A    between atoms: _322  and  _324
REMARK  138  A    between atoms: _324  and  _325
REMARK  139  A    between atoms: _328  and  _330
REMARK  140  A    between atoms: _330  and  _331
REMARK  141  A    between atoms: _330  and  _333
REMARK  142  A    between atoms: _333  and  _334
REMARK  143  A    between atoms: _334  and  _457
REMARK  144  A    between atoms: _335  and  _337
REMARK  145  A    between atoms: _337  and  _338
REMARK  146  A    between atoms: _337  and  _340
REMARK  147  A    between atoms: _340  and  _341
REMARK  148  A    between atoms: _341  and  _342
REMARK  149  A    between atoms: _347  and  _349
REMARK  150  A    between atoms: _349  and  _350
REMARK  151  A    between atoms: _352  and  _354
REMARK  152  A    between atoms: _354  and  _355
REMARK  153  A    between atoms: _354  and  _357
REMARK  154  A    between atoms: _357  and  _358
REMARK  155  A    between atoms: _361  and  _363
REMARK  156  A    between atoms: _363  and  _364
REMARK  157  A    between atoms: _363  and  _366
REMARK  158  A    between atoms: _366  and  _367
REMARK  159  A    between atoms: _369  and  _371
REMARK  160  A    between atoms: _371  and  _372
REMARK  161  A    between atoms: _374  and  _376
REMARK  162  A    between atoms: _376  and  _377
REMARK  163  A    between atoms: _379  and  _381
REMARK  164  A    between atoms: _381  and  _382
REMARK  165  A    between atoms: _381  and  _384
REMARK  166  A    between atoms: _384  and  _385
REMARK  167  A    between atoms: _390  and  _392
REMARK  168  A    between atoms: _392  and  _393
REMARK  169  A    between atoms: _392  and  _395
REMARK  170  A    between atoms: _395  and  _396
REMARK  171  A    between atoms: _399  and  _401
REMARK  172  A    between atoms: _401  and  _402
REMARK  173  A    between atoms: _401  and  _404
REMARK  174  A    between atoms: _407  and  _409
REMARK  175  A    between atoms: _409  and  _410
REMARK  176  A    between atoms: _409  and  _412
REMARK  177  A    between atoms: _412  and  _413
REMARK  178  A    between atoms: _415  and  _417
REMARK  179  A    between atoms: _417  and  _418
REMARK  180  A    between atoms: _417  and  _420
REMARK  181  A    between atoms: _420  and  _421
REMARK  182  A    between atoms: _431  and  _433
REMARK  183  A    between atoms: _433  and  _434
REMARK  184  A    between atoms: _436  and  _438
REMARK  185  A    between atoms: _438  and  _439
REMARK  186  A    between atoms: _438  and  _441
REMARK  187  A    between atoms: _441  and  _442
REMARK  188  A    between atoms: _442  and  _443
REMARK  189  A    between atoms: _446  and  _448
REMARK  190  A    between atoms: _448  and  _449
REMARK  191  A    between atoms: _451  and  _453
REMARK  192  A    between atoms: _453  and  _454
REMARK  193  A    between atoms: _453  and  _456
REMARK  194  A    between atoms: _456  and  _457
REMARK  195  A    between atoms: _458  and  _460
REMARK  196  A    between atoms: _460  and  _461
REMARK  197  A    between atoms: _464  and  _466
REMARK  198  A    between atoms: _466  and  _467
REMARK  199  A    between atoms: _466  and  _469
REMARK  200  A    between atoms: _469  and  _470
REMARK  201  A    between atoms: _470  and  _471
REMARK  202  A    between atoms: _471  and  _472
REMARK  203  A    between atoms: _481  and  _483
REMARK  204  A    between atoms: _483  and  _484
REMARK  205  A    between atoms: _483  and  _486
REMARK  206  A    between atoms: _486  and  _487
REMARK  207  A    between atoms: _487  and  _488
REMARK  208  A    between atoms: _488  and  _489
REMARK  209  A    between atoms: _489  and  _490
REMARK  210  A    between atoms: _494  and  _496
REMARK  211  A    between atoms: _496  and  _497
REMARK  212  A    between atoms: _496  and  _499
REMARK  213  A    between atoms: _499  and  _500
REMARK  214  A    between atoms: _505  and  _506
REMARK  215  A    between atoms: _508  and  _510
REMARK  216  A    between atoms: _510  and  _511
REMARK  217  A    between atoms: _513  and  _515
REMARK  218  A    between atoms: _515  and  _516
REMARK  219  A    between atoms: _515  and  _518
REMARK  220  A    between atoms: _518  and  _519
REMARK  221  A    between atoms: _522  and  _524
REMARK  222  A    between atoms: _524  and  _525
REMARK  223  A    between atoms: _524  and  _527
REMARK  224  A    between atoms: _527  and  _528
REMARK  225  A    between atoms: _533  and  _534
REMARK  226  A    between atoms: _536  and  _538
REMARK  227  A    between atoms: _538  and  _539
REMARK  228  A    between atoms: _538  and  _541
REMARK  229  A    between atoms: _541  and  _542
REMARK                            x       y       z     vdW  Elec       q    Type
REMARK                         _______ _______ _______ _____ _____    ______ ____
ROOT
ATOM      1  O   HOH     1      13.542  64.866  -1.882  0.00  0.00    +0.000 OA
ENDROOT
TORSDOF 0
REMARK  Name = ../refined-set-2016/2xbw/2xbw_pocket.pdb
REMARK  229 active torsions:
REMARK  status: ('A' for Active; 'I' for Inactive)
REMARK    1  A    between atoms: _1  and  _5
REMARK    2  A    between atoms: _5  and  _6
REMARK    3  A    between atoms: _5  and  _8
REMARK    4  A    between atoms: _8  and  _9
REMARK    5  A    between atoms: _12  and  _14
REMARK    6  A    between atoms: _14  and  _15
REMARK    7  A    between atoms: _14  and  _17
REMARK    8  A    between atoms: _20  and  _22
REMARK    9  A    between atoms: _22  and  _23
REMARK   10  A    between atoms: _22  and  _25
REMARK   11  A    between atoms: _25  and  _26
REMARK   12  A    between atoms: _31  and  _33
REMARK   13  A    between atoms: _33  and  _34
REMARK   14  A    between atoms: _33  and  _36
REMARK   15  A    between atoms: _36  and  _37
REMARK   16  A    between atoms: _37  and  _38
REMARK   17  A    between atoms: _43  and  _45
REMARK   18  A    between atoms: _45  and  _46
REMARK   19  A    between atoms: _45  and  _48
REMARK   20  A    between atoms: _48  and  _49
REMARK   21  A    between atoms: _55  and  _57
REMARK   22  A    between atoms: _57  and  _58
REMARK   23  A    between atoms: _57  and  _60
REMARK   24  A    between atoms: _60  and  _61
REMARK   25  A    between atoms: _64  and  _66
REMARK   26  A    between atoms: _66  and  _67
REMARK   27  A    between atoms: _66  and  _69
REMARK   28  A    between atoms: _69  and  _70
REMARK   29  A    between atoms: _70  and  _71
REMARK   30  A    between atoms: _71  and  _72
REMARK   31  A    between atoms: _72  and  _73
REMARK   32  A    between atoms: _77  and  _79
REMARK   33  A    between atoms: _79  and  _80
REMARK   34  A    between atoms: _79  and  _82
REMARK   35  A    between atoms: _82  and  _83
REMARK   36  A    between atoms: _83  and  _84
REMARK   37  A    between atoms: _87  and  _89
REMARK   38  A    between atoms: _89  and  _90
REMARK   39  A    between atoms: _89  and  _92
REMARK   40  A    between atoms: _92  and  _93
REMARK   41  A    between atoms: _96  and  _98
REMARK   42  A    between atoms: _98  and  _99
REMARK   43  A    between atoms: _98  and  _101
REMARK   44  A    between atoms: _101  and  _102
REMARK   45  A    between atoms: _107  and  _108
REMARK   46  A    between atoms: _110  and  _112
REMARK   47  A    between atoms: _112  and  _113
REMARK   48  A    between atoms: _112  and  _115
REMARK   49  A    between atoms: _115  and  _116
REMARK   50  A    between atoms: _119  and  _121
REMARK   51  A    between atoms: _121  and  _122
REMARK   52  A    between atoms: _121  and  _124
REMARK   53  A    between atoms: _124  and  _125
REMARK   54  A    between atoms: _128  and  _130
REMARK   55  A    between atoms: _130  and  _131
REMARK   56  A    between atoms: _130  and  _133
REMARK   57  A    between atoms: _136  and  _138
REMARK   58  A    between atoms: _138  and  _139
REMARK   59  A    between atoms: _138  and  _141
REMARK   60  A    between atoms: _141  and  _142
REMARK   61  A    between atoms: _142  and  _143
REMARK   62  A    between atoms: _143  and  _144
REMARK   63  A    between atoms: _153  and  _155
REMARK   64  A    between atoms: _155  and  _156
REMARK   65  A    between atoms: _155  and  _158
REMARK   66  A    between atoms: _158  and  _159
REMARK   67  A    between atoms: _162  and  _164
REMARK   68  A    between atoms: _164  and  _165
REMARK   69  A    between atoms: _164  and  _167
REMARK   70  A    between atoms: _167  and  _168
REMARK   71  A    between atoms: _173  and  _175
REMARK   72  A    between atoms: _175  and  _176
REMARK   73  A    between atoms: _175  and  _178
REMARK   74  A    between atoms: _178  and  _179
REMARK   75  A    between atoms: _179  and  _180
REMARK   76  A    between atoms: _183  and  _185
REMARK   77  A    between atoms: _185  and  _186
REMARK   78  A    between atoms: _185  and  _188
REMARK   79  A    between atoms: _188  and  _189
REMARK   80  A    between atoms: _189  and  _190
REMARK   81  A    between atoms: _190  and  _191
REMARK   82  A    between atoms: _191  and  _192
REMARK   83  A    between atoms: _196  and  _198
REMARK   84  A    between atoms: _198  and  _199
REMARK   85  A    between atoms: _201  and  _203
REMARK   86  A    between atoms: _203  and  _204
REMARK   87  A    between atoms: _203  and  _206
REMARK   88  A    between atoms: _209  and  _211
REMARK   89  A    between atoms: _211  and  _212
REMARK   90  A    between atoms: _211  and  _214
REMARK   91  A    between atoms: _214  and  _215
REMARK   92  A    between atoms: _217  and  _219
REMARK   93  A    between atoms: _219  and  _220
REMARK   94  A    between atoms: _219  and  _222
REMARK   95  A    between atoms: _222  and  _223
REMARK   96  A    between atoms: _225  and  _227
REMARK   97  A    between atoms: _227  and  _228
REMARK   98  A    between atoms: _227  and  _230
REMARK   99  A    between atoms: _230  and  _231
REMARK  100  A    between atoms: _237  and  _239
REMARK  101  A    between atoms: _239  and  _240
REMARK  102  A    between atoms: _239  and  _242
REMARK  103  A    between atoms: _242  and  _243
REMARK  104  A    between atoms: _246  and  _248
REMARK  105  A    between atoms: _248  and  _249
REMARK  106  A    between atoms: _248  and  _251
REMARK  107  A    between atoms: _251  and  _252
REMARK  108  A    between atoms: _255  and  _257
REMARK  109  A    between atoms: _257  and  _258
REMARK  110  A    between atoms: _257  and  _260
REMARK  111  A    between atoms: _260  and  _261
REMARK  112  A    between atoms: _264  and  _266
REMARK  113  A    between atoms: _266  and  _267
REMARK  114  A    between atoms: _266  and  _269
REMARK  115  A    between atoms: _269  and  _270
REMARK  116  A    between atoms: _270  and  _271
REMARK  117  A    between atoms: _273  and  _275
REMARK  118  A    between atoms: _275  and  _276
REMARK  119  A    between atoms: _275  and  _278
REMARK  120  A    between atoms: _278  and  _279
REMARK  121  A    between atoms: _285  and  _287
REMARK  122  A    between atoms: _287  and  _288
REMARK  123  A    between atoms: _287  and  _290
REMARK  124  A    between atoms: _292  and  _294
REMARK  125  A    between atoms: _294  and  _295
REMARK  126  A    between atoms: _298  and  _300
REMARK  127  A    between atoms: _300  and  _301
REMARK  128  A    between atoms: _303  and  _305
REMARK  129  A    between atoms: _305  and  _306
REMARK  130  A    between atoms: _305  and  _308
REMARK  131  A    between atoms: _308  and  _309
REMARK  132  A    between atoms: _309  and  _310
REMARK  133  A    between atoms: _313  and  _315
REMARK  134  A    between atoms: _315  and  _316
REMARK  135  A    between atoms: _315  and  _318
REMARK  136  A    between atoms: _318  and  _319
REMARK  137  A    between atoms: _322  and  _324
REMARK  138  A    between atoms: _324  and  _325
REMARK  139  A    between atoms: _328  and  _330
REMARK  140  A    between atoms: _330  and  _331
REMARK  141  A    between atoms: _330  and  _333
REMARK  142  A    between atoms: _333  and  _334
REMARK  143  A    between atoms: _334  and  _457
REMARK  144  A    between atoms: _335  and  _337
REMARK  145  A    between atoms: _337  and  _338
REMARK  146  A    between atoms: _337  and  _340
REMARK  147  A    between atoms: _340  and  _341
REMARK  148  A    between atoms: _341  and  _342
REMARK  149  A    between atoms: _347  and  _349
REMARK  150  A    between atoms: _349  and  _350
REMARK  151  A    between atoms: _352  and  _354
REMARK  152  A    between atoms: _354  and  _355
REMARK  153  A    between atoms: _354  and  _357
REMARK  154  A    between atoms: _357  and  _358
REMARK  155  A    between atoms: _361  and  _363
REMARK  156  A    between atoms: _363  and  _364
REMARK  157  A    between atoms: _363  and  _366
REMARK  158  A    between atoms: _366  and  _367
REMARK  159  A    between atoms: _369  and  _371
REMARK  160  A    between atoms: _371  and  _372
REMARK  161  A    between atoms: _374  and  _376
REMARK  162  A    between atoms: _376  and  _377
REMARK  163  A    between atoms: _379  and  _381
REMARK  164  A    between atoms: _381  and  _382
REMARK  165  A    between atoms: _381  and  _384
REMARK  166  A    between atoms: _384  and  _385
REMARK  167  A    between atoms: _390  and  _392
REMARK  168  A    between atoms: _392  and  _393
REMARK  169  A    between atoms: _392  and  _395
REMARK  170  A    between atoms: _395  and  _396
REMARK  171  A    between atoms: _399  and  _401
REMARK  172  A    between atoms: _401  and  _402
REMARK  173  A    between atoms: _401  and  _404
REMARK  174  A    between atoms: _407  and  _409
REMARK  175  A    between atoms: _409  and  _410
REMARK  176  A    between atoms: _409  and  _412
REMARK  177  A    between atoms: _412  and  _413
REMARK  178  A    between atoms: _415  and  _417
REMARK  179  A    between atoms: _417  and  _418
REMARK  180  A    between atoms: _417  and  _420
REMARK  181  A    between atoms: _420  and  _421
REMARK  182  A    between atoms: _431  and  _433
REMARK  183  A    between atoms: _433  and  _434
REMARK  184  A    between atoms: _436  and  _438
REMARK  185  A    between atoms: _438  and  _439
REMARK  186  A    between atoms: _438  and  _441
REMARK  187  A    between atoms: _441  and  _442
REMARK  188  A    between atoms: _442  and  _443
REMARK  189  A    between atoms: _446  and  _448
REMARK  190  A    between atoms: _448  and  _449
REMARK  191  A    between atoms: _451  and  _453
REMARK  192  A    between atoms: _453  and  _454
REMARK  193  A    between atoms: _453  and  _456
REMARK  194  A    between atoms: _456  and  _457
REMARK  195  A    between atoms: _458  and  _460
REMARK  196  A    between atoms: _460  and  _461
REMARK  197  A    between atoms: _464  and  _466
REMARK  198  A    between atoms: _466  and  _467
REMARK  199  A    between atoms: _466  and  _469
REMARK  200  A    between atoms: _469  and  _470
REMARK  201  A    between atoms: _470  and  _471
REMARK  202  A    between atoms: _471  and  _472
REMARK  203  A    between atoms: _481  and  _483
REMARK  204  A    between atoms: _483  and  _484
REMARK  205  A    between atoms: _483  and  _486
REMARK  206  A    between atoms: _486  and  _487
REMARK  207  A    between atoms: _487  and  _488
REMARK  208  A    between atoms: _488  and  _489
REMARK  209  A    between atoms: _489  and  _490
REMARK  210  A    between atoms: _494  and  _496
REMARK  211  A    between atoms: _496  and  _497
REMARK  212  A    between atoms: _496  and  _499
REMARK  213  A    between atoms: _499  and  _500
REMARK  214  A    between atoms: _505  and  _506
REMARK  215  A    between atoms: _508  and  _510
REMARK  216  A    between atoms: _510  and  _511
REMARK  217  A    between atoms: _513  and  _515
REMARK  218  A    between atoms: _515  and  _516
REMARK  219  A    between atoms: _515  and  _518
REMARK  220  A    between atoms: _518  and  _519
REMARK  221  A    between atoms: _522  and  _524
REMARK  222  A    between atoms: _524  and  _525
REMARK  223  A    between atoms: _524  and  _527
REMARK  224  A    between atoms: _527  and  _528
REMARK  225  A    between atoms: _533  and  _534
REMARK  226  A    between atoms: _536  and  _538
REMARK  227  A    between atoms: _538  and  _539
REMARK  228  A    between atoms: _538  and  _541
REMARK  229  A    between atoms: _541  and  _542
REMARK                            x       y       z     vdW  Elec       q    Type
REMARK                         _______ _______ _______ _____ _____    ______ ____
ROOT
ATOM      1  O   HOH     1       1.749  56.310   1.410  0.00  0.00    +0.000 OA
ENDROOT
TORSDOF 0
REMARK  Name = ../refined-set-2016/2xbw/2xbw_pocket.pdb
REMARK  229 active torsions:
REMARK  status: ('A' for Active; 'I' for Inactive)
REMARK    1  A    between atoms: _1  and  _5
REMARK    2  A    between atoms: _5  and  _6
REMARK    3  A    between atoms: _5  and  _8
REMARK    4  A    between atoms: _8  and  _9
REMARK    5  A    between atoms: _12  and  _14
REMARK    6  A    between atoms: _14  and  _15
REMARK    7  A    between atoms: _14  and  _17
REMARK    8  A    between atoms: _20  and  _22
REMARK    9  A    between atoms: _22  and  _23
REMARK   10  A    between atoms: _22  and  _25
REMARK   11  A    between atoms: _25  and  _26
REMARK   12  A    between atoms: _31  and  _33
REMARK   13  A    between atoms: _33  and  _34
REMARK   14  A    between atoms: _33  and  _36
REMARK   15  A    between atoms: _36  and  _37
REMARK   16  A    between atoms: _37  and  _38
REMARK   17  A    between atoms: _43  and  _45
REMARK   18  A    between atoms: _45  and  _46
REMARK   19  A    between atoms: _45  and  _48
REMARK   20  A    between atoms: _48  and  _49
REMARK   21  A    between atoms: _55  and  _57
REMARK   22  A    between atoms: _57  and  _58
REMARK   23  A    between atoms: _57  and  _60
REMARK   24  A    between atoms: _60  and  _61
REMARK   25  A    between atoms: _64  and  _66
REMARK   26  A    between atoms: _66  and  _67
REMARK   27  A    between atoms: _66  and  _69
REMARK   28  A    between atoms: _69  and  _70
REMARK   29  A    between atoms: _70  and  _71
REMARK   30  A    between atoms: _71  and  _72
REMARK   31  A    between atoms: _72  and  _73
REMARK   32  A    between atoms: _77  and  _79
REMARK   33  A    between atoms: _79  and  _80
REMARK   34  A    between atoms: _79  and  _82
REMARK   35  A    between atoms: _82  and  _83
REMARK   36  A    between atoms: _83  and  _84
REMARK   37  A    between atoms: _87  and  _89
REMARK   38  A    between atoms: _89  and  _90
REMARK   39  A    between atoms: _89  and  _92
REMARK   40  A    between atoms: _92  and  _93
REMARK   41  A    between atoms: _96  and  _98
REMARK   42  A    between atoms: _98  and  _99
REMARK   43  A    between atoms: _98  and  _101
REMARK   44  A    between atoms: _101  and  _102
REMARK   45  A    between atoms: _107  and  _108
REMARK   46  A    between atoms: _110  and  _112
REMARK   47  A    between atoms: _112  and  _113
REMARK   48  A    between atoms: _112  and  _115
REMARK   49  A    between atoms: _115  and  _116
REMARK   50  A    between atoms: _119  and  _121
REMARK   51  A    between atoms: _121  and  _122
REMARK   52  A    between atoms: _121  and  _124
REMARK   53  A    between atoms: _124  and  _125
REMARK   54  A    between atoms: _128  and  _130
REMARK   55  A    between atoms: _130  and  _131
REMARK   56  A    between atoms: _130  and  _133
REMARK   57  A    between atoms: _136  and  _138
REMARK   58  A    between atoms: _138  and  _139
REMARK   59  A    between atoms: _138  and  _141
REMARK   60  A    between atoms: _141  and  _142
REMARK   61  A    between atoms: _142  and  _143
REMARK   62  A    between atoms: _143  and  _144
REMARK   63  A    between atoms: _153  and  _155
REMARK   64  A    between atoms: _155  and  _156
REMARK   65  A    between atoms: _155  and  _158
REMARK   66  A    between atoms: _158  and  _159
REMARK   67  A    between atoms: _162  and  _164
REMARK   68  A    between atoms: _164  and  _165
REMARK   69  A    between atoms: _164  and  _167
REMARK   70  A    between atoms: _167  and  _168
REMARK   71  A    between atoms: _173  and  _175
REMARK   72  A    between atoms: _175  and  _176
REMARK   73  A    between atoms: _175  and  _178
REMARK   74  A    between atoms: _178  and  _179
REMARK   75  A    between atoms: _179  and  _180
REMARK   76  A    between atoms: _183  and  _185
REMARK   77  A    between atoms: _185  and  _186
REMARK   78  A    between atoms: _185  and  _188
REMARK   79  A    between atoms: _188  and  _189
REMARK   80  A    between atoms: _189  and  _190
REMARK   81  A    between atoms: _190  and  _191
REMARK   82  A    between atoms: _191  and  _192
REMARK   83  A    between atoms: _196  and  _198
REMARK   84  A    between atoms: _198  and  _199
REMARK   85  A    between atoms: _201  and  _203
REMARK   86  A    between atoms: _203  and  _204
REMARK   87  A    between atoms: _203  and  _206
REMARK   88  A    between atoms: _209  and  _211
REMARK   89  A    between atoms: _211  and  _212
REMARK   90  A    between atoms: _211  and  _214
REMARK   91  A    between atoms: _214  and  _215
REMARK   92  A    between atoms: _217  and  _219
REMARK   93  A    between atoms: _219  and  _220
REMARK   94  A    between atoms: _219  and  _222
REMARK   95  A    between atoms: _222  and  _223
REMARK   96  A    between atoms: _225  and  _227
REMARK   97  A    between atoms: _227  and  _228
REMARK   98  A    between atoms: _227  and  _230
REMARK   99  A    between atoms: _230  and  _231
REMARK  100  A    between atoms: _237  and  _239
REMARK  101  A    between atoms: _239  and  _240
REMARK  102  A    between atoms: _239  and  _242
REMARK  103  A    between atoms: _242  and  _243
REMARK  104  A    between atoms: _246  and  _248
REMARK  105  A    between atoms: _248  and  _249
REMARK  106  A    between atoms: _248  and  _251
REMARK  107  A    between atoms: _251  and  _252
REMARK  108  A    between atoms: _255  and  _257
REMARK  109  A    between atoms: _257  and  _258
REMARK  110  A    between atoms: _257  and  _260
REMARK  111  A    between atoms: _260  and  _261
REMARK  112  A    between atoms: _264  and  _266
REMARK  113  A    between atoms: _266  and  _267
REMARK  114  A    between atoms: _266  and  _269
REMARK  115  A    between atoms: _269  and  _270
REMARK  116  A    between atoms: _270  and  _271
REMARK  117  A    between atoms: _273  and  _275
REMARK  118  A    between atoms: _275  and  _276
REMARK  119  A    between atoms: _275  and  _278
REMARK  120  A    between atoms: _278  and  _279
REMARK  121  A    between atoms: _285  and  _287
REMARK  122  A    between atoms: _287  and  _288
REMARK  123  A    between atoms: _287  and  _290
REMARK  124  A    between atoms: _292  and  _294
REMARK  125  A    between atoms: _294  and  _295
REMARK  126  A    between atoms: _298  and  _300
REMARK  127  A    between atoms: _300  and  _301
REMARK  128  A    between atoms: _303  and  _305
REMARK  129  A    between atoms: _305  and  _306
REMARK  130  A    between atoms: _305  and  _308
REMARK  131  A    between atoms: _308  and  _309
REMARK  132  A    between atoms: _309  and  _310
REMARK  133  A    between atoms: _313  and  _315
REMARK  134  A    between atoms: _315  and  _316
REMARK  135  A    between atoms: _315  and  _318
REMARK  136  A    between atoms: _318  and  _319
REMARK  137  A    between atoms: _322  and  _324
REMARK  138  A    between atoms: _324  and  _325
REMARK  139  A    between atoms: _328  and  _330
REMARK  140  A    between atoms: _330  and  _331
REMARK  141  A    between atoms: _330  and  _333
REMARK  142  A    between atoms: _333  and  _334
REMARK  143  A    between atoms: _334  and  _457
REMARK  144  A    between atoms: _335  and  _337
REMARK  145  A    between atoms: _337  and  _338
REMARK  146  A    between atoms: _337  and  _340
REMARK  147  A    between atoms: _340  and  _341
REMARK  148  A    between atoms: _341  and  _342
REMARK  149  A    between atoms: _347  and  _349
REMARK  150  A    between atoms: _349  and  _350
REMARK  151  A    between atoms: _352  and  _354
REMARK  152  A    between atoms: _354  and  _355
REMARK  153  A    between atoms: _354  and  _357
REMARK  154  A    between atoms: _357  and  _358
REMARK  155  A    between atoms: _361  and  _363
REMARK  156  A    between atoms: _363  and  _364
REMARK  157  A    between atoms: _363  and  _366
REMARK  158  A    between atoms: _366  and  _367
REMARK  159  A    between atoms: _369  and  _371
REMARK  160  A    between atoms: _371  and  _372
REMARK  161  A    between atoms: _374  and  _376
REMARK  162  A    between atoms: _376  and  _377
REMARK  163  A    between atoms: _379  and  _381
REMARK  164  A    between atoms: _381  and  _382
REMARK  165  A    between atoms: _381  and  _384
REMARK  166  A    between atoms: _384  and  _385
REMARK  167  A    between atoms: _390  and  _392
REMARK  168  A    between atoms: _392  and  _393
REMARK  169  A    between atoms: _392  and  _395
REMARK  170  A    between atoms: _395  and  _396
REMARK  171  A    between atoms: _399  and  _401
REMARK  172  A    between atoms: _401  and  _402
REMARK  173  A    between atoms: _401  and  _404
REMARK  174  A    between atoms: _407  and  _409
REMARK  175  A    between atoms: _409  and  _410
REMARK  176  A    between atoms: _409  and  _412
REMARK  177  A    between atoms: _412  and  _413
REMARK  178  A    between atoms: _415  and  _417
REMARK  179  A    between atoms: _417  and  _418
REMARK  180  A    between atoms: _417  and  _420
REMARK  181  A    between atoms: _420  and  _421
REMARK  182  A    between atoms: _431  and  _433
REMARK  183  A    between atoms: _433  and  _434
REMARK  184  A    between atoms: _436  and  _438
REMARK  185  A    between atoms: _438  and  _439
REMARK  186  A    between atoms: _438  and  _441
REMARK  187  A    between atoms: _441  and  _442
REMARK  188  A    between atoms: _442  and  _443
REMARK  189  A    between atoms: _446  and  _448
REMARK  190  A    between atoms: _448  and  _449
REMARK  191  A    between atoms: _451  and  _453
REMARK  192  A    between atoms: _453  and  _454
REMARK  193  A    between atoms: _453  and  _456
REMARK  194  A    between atoms: _456  and  _457
REMARK  195  A    between atoms: _458  and  _460
REMARK  196  A    between atoms: _460  and  _461
REMARK  197  A    between atoms: _464  and  _466
REMARK  198  A    between atoms: _466  and  _467
REMARK  199  A    between atoms: _466  and  _469
REMARK  200  A    between atoms: _469  and  _470
REMARK  201  A    between atoms: _470  and  _471
REMARK  202  A    between atoms: _471  and  _472
REMARK  203  A    between atoms: _481  and  _483
REMARK  204  A    between atoms: _483  and  _484
REMARK  205  A    between atoms: _483  and  _486
REMARK  206  A    between atoms: _486  and  _487
REMARK  207  A    between atoms: _487  and  _488
REMARK  208  A    between atoms: _488  and  _489
REMARK  209  A    between atoms: _489  and  _490
REMARK  210  A    between atoms: _494  and  _496
REMARK  211  A    between atoms: _496  and  _497
REMARK  212  A    between atoms: _496  and  _499
REMARK  213  A    between atoms: _499  and  _500
REMARK  214  A    between atoms: _505  and  _506
REMARK  215  A    between atoms: _508  and  _510
REMARK  216  A    between atoms: _510  and  _511
REMARK  217  A    between atoms: _513  and  _515
REMARK  218  A    between atoms: _515  and  _516
REMARK  219  A    between atoms: _515  and  _518
REMARK  220  A    between atoms: _518  and  _519
REMARK  221  A    between atoms: _522  and  _524
REMARK  222  A    between atoms: _524  and  _525
REMARK  223  A    between atoms: _524  and  _527
REMARK  224  A    between atoms: _527  and  _528
REMARK  225  A    between atoms: _533  and  _534
REMARK  226  A    between atoms: _536  and  _538
REMARK  227  A    between atoms: _538  and  _539
REMARK  228  A    between atoms: _538  and  _541
REMARK  229  A    between atoms: _541  and  _542
REMARK                            x       y       z     vdW  Elec       q    Type
REMARK                         _______ _______ _______ _____ _____    ______ ____
ROOT
ATOM      1  O   HOH     1       6.776  53.282   5.172  0.00  0.00    +0.000 OA
ENDROOT
TORSDOF 0
REMARK  Name = ../refined-set-2016/2xbw/2xbw_pocket.pdb
REMARK  229 active torsions:
REMARK  status: ('A' for Active; 'I' for Inactive)
REMARK    1  A    between atoms: _1  and  _5
REMARK    2  A    between atoms: _5  and  _6
REMARK    3  A    between atoms: _5  and  _8
REMARK    4  A    between atoms: _8  and  _9
REMARK    5  A    between atoms: _12  and  _14
REMARK    6  A    between atoms: _14  and  _15
REMARK    7  A    between atoms: _14  and  _17
REMARK    8  A    between atoms: _20  and  _22
REMARK    9  A    between atoms: _22  and  _23
REMARK   10  A    between atoms: _22  and  _25
REMARK   11  A    between atoms: _25  and  _26
REMARK   12  A    between atoms: _31  and  _33
REMARK   13  A    between atoms: _33  and  _34
REMARK   14  A    between atoms: _33  and  _36
REMARK   15  A    between atoms: _36  and  _37
REMARK   16  A    between atoms: _37  and  _38
REMARK   17  A    between atoms: _43  and  _45
REMARK   18  A    between atoms: _45  and  _46
REMARK   19  A    between atoms: _45  and  _48
REMARK   20  A    between atoms: _48  and  _49
REMARK   21  A    between atoms: _55  and  _57
REMARK   22  A    between atoms: _57  and  _58
REMARK   23  A    between atoms: _57  and  _60
REMARK   24  A    between atoms: _60  and  _61
REMARK   25  A    between atoms: _64  and  _66
REMARK   26  A    between atoms: _66  and  _67
REMARK   27  A    between atoms: _66  and  _69
REMARK   28  A    between atoms: _69  and  _70
REMARK   29  A    between atoms: _70  and  _71
REMARK   30  A    between atoms: _71  and  _72
REMARK   31  A    between atoms: _72  and  _73
REMARK   32  A    between atoms: _77  and  _79
REMARK   33  A    between atoms: _79  and  _80
REMARK   34  A    between atoms: _79  and  _82
REMARK   35  A    between atoms: _82  and  _83
REMARK   36  A    between atoms: _83  and  _84
REMARK   37  A    between atoms: _87  and  _89
REMARK   38  A    between atoms: _89  and  _90
REMARK   39  A    between atoms: _89  and  _92
REMARK   40  A    between atoms: _92  and  _93
REMARK   41  A    between atoms: _96  and  _98
REMARK   42  A    between atoms: _98  and  _99
REMARK   43  A    between atoms: _98  and  _101
REMARK   44  A    between atoms: _101  and  _102
REMARK   45  A    between atoms: _107  and  _108
REMARK   46  A    between atoms: _110  and  _112
REMARK   47  A    between atoms: _112  and  _113
REMARK   48  A    between atoms: _112  and  _115
REMARK   49  A    between atoms: _115  and  _116
REMARK   50  A    between atoms: _119  and  _121
REMARK   51  A    between atoms: _121  and  _122
REMARK   52  A    between atoms: _121  and  _124
REMARK   53  A    between atoms: _124  and  _125
REMARK   54  A    between atoms: _128  and  _130
REMARK   55  A    between atoms: _130  and  _131
REMARK   56  A    between atoms: _130  and  _133
REMARK   57  A    between atoms: _136  and  _138
REMARK   58  A    between atoms: _138  and  _139
REMARK   59  A    between atoms: _138  and  _141
REMARK   60  A    between atoms: _141  and  _142
REMARK   61  A    between atoms: _142  and  _143
REMARK   62  A    between atoms: _143  and  _144
REMARK   63  A    between atoms: _153  and  _155
REMARK   64  A    between atoms: _155  and  _156
REMARK   65  A    between atoms: _155  and  _158
REMARK   66  A    between atoms: _158  and  _159
REMARK   67  A    between atoms: _162  and  _164
REMARK   68  A    between atoms: _164  and  _165
REMARK   69  A    between atoms: _164  and  _167
REMARK   70  A    between atoms: _167  and  _168
REMARK   71  A    between atoms: _173  and  _175
REMARK   72  A    between atoms: _175  and  _176
REMARK   73  A    between atoms: _175  and  _178
REMARK   74  A    between atoms: _178  and  _179
REMARK   75  A    between atoms: _179  and  _180
REMARK   76  A    between atoms: _183  and  _185
REMARK   77  A    between atoms: _185  and  _186
REMARK   78  A    between atoms: _185  and  _188
REMARK   79  A    between atoms: _188  and  _189
REMARK   80  A    between atoms: _189  and  _190
REMARK   81  A    between atoms: _190  and  _191
REMARK   82  A    between atoms: _191  and  _192
REMARK   83  A    between atoms: _196  and  _198
REMARK   84  A    between atoms: _198  and  _199
REMARK   85  A    between atoms: _201  and  _203
REMARK   86  A    between atoms: _203  and  _204
REMARK   87  A    between atoms: _203  and  _206
REMARK   88  A    between atoms: _209  and  _211
REMARK   89  A    between atoms: _211  and  _212
REMARK   90  A    between atoms: _211  and  _214
REMARK   91  A    between atoms: _214  and  _215
REMARK   92  A    between atoms: _217  and  _219
REMARK   93  A    between atoms: _219  and  _220
REMARK   94  A    between atoms: _219  and  _222
REMARK   95  A    between atoms: _222  and  _223
REMARK   96  A    between atoms: _225  and  _227
REMARK   97  A    between atoms: _227  and  _228
REMARK   98  A    between atoms: _227  and  _230
REMARK   99  A    between atoms: _230  and  _231
REMARK  100  A    between atoms: _237  and  _239
REMARK  101  A    between atoms: _239  and  _240
REMARK  102  A    between atoms: _239  and  _242
REMARK  103  A    between atoms: _242  and  _243
REMARK  104  A    between atoms: _246  and  _248
REMARK  105  A    between atoms: _248  and  _249
REMARK  106  A    between atoms: _248  and  _251
REMARK  107  A    between atoms: _251  and  _252
REMARK  108  A    between atoms: _255  and  _257
REMARK  109  A    between atoms: _257  and  _258
REMARK  110  A    between atoms: _257  and  _260
REMARK  111  A    between atoms: _260  and  _261
REMARK  112  A    between atoms: _264  and  _266
REMARK  113  A    between atoms: _266  and  _267
REMARK  114  A    between atoms: _266  and  _269
REMARK  115  A    between atoms: _269  and  _270
REMARK  116  A    between atoms: _270  and  _271
REMARK  117  A    between atoms: _273  and  _275
REMARK  118  A    between atoms: _275  and  _276
REMARK  119  A    between atoms: _275  and  _278
REMARK  120  A    between atoms: _278  and  _279
REMARK  121  A    between atoms: _285  and  _287
REMARK  122  A    between atoms: _287  and  _288
REMARK  123  A    between atoms: _287  and  _290
REMARK  124  A    between atoms: _292  and  _294
REMARK  125  A    between atoms: _294  and  _295
REMARK  126  A    between atoms: _298  and  _300
REMARK  127  A    between atoms: _300  and  _301
REMARK  128  A    between atoms: _303  and  _305
REMARK  129  A    between atoms: _305  and  _306
REMARK  130  A    between atoms: _305  and  _308
REMARK  131  A    between atoms: _308  and  _309
REMARK  132  A    between atoms: _309  and  _310
REMARK  133  A    between atoms: _313  and  _315
REMARK  134  A    between atoms: _315  and  _316
REMARK  135  A    between atoms: _315  and  _318
REMARK  136  A    between atoms: _318  and  _319
REMARK  137  A    between atoms: _322  and  _324
REMARK  138  A    between atoms: _324  and  _325
REMARK  139  A    between atoms: _328  and  _330
REMARK  140  A    between atoms: _330  and  _331
REMARK  141  A    between atoms: _330  and  _333
REMARK  142  A    between atoms: _333  and  _334
REMARK  143  A    between atoms: _334  and  _457
REMARK  144  A    between atoms: _335  and  _337
REMARK  145  A    between atoms: _337  and  _338
REMARK  146  A    between atoms: _337  and  _340
REMARK  147  A    between atoms: _340  and  _341
REMARK  148  A    between atoms: _341  and  _342
REMARK  149  A    between atoms: _347  and  _349
REMARK  150  A    between atoms: _349  and  _350
REMARK  151  A    between atoms: _352  and  _354
REMARK  152  A    between atoms: _354  and  _355
REMARK  153  A    between atoms: _354  and  _357
REMARK  154  A    between atoms: _357  and  _358
REMARK  155  A    between atoms: _361  and  _363
REMARK  156  A    between atoms: _363  and  _364
REMARK  157  A    between atoms: _363  and  _366
REMARK  158  A    between atoms: _366  and  _367
REMARK  159  A    between atoms: _369  and  _371
REMARK  160  A    between atoms: _371  and  _372
REMARK  161  A    between atoms: _374  and  _376
REMARK  162  A    between atoms: _376  and  _377
REMARK  163  A    between atoms: _379  and  _381
REMARK  164  A    between atoms: _381  and  _382
REMARK  165  A    between atoms: _381  and  _384
REMARK  166  A    between atoms: _384  and  _385
REMARK  167  A    between atoms: _390  and  _392
REMARK  168  A    between atoms: _392  and  _393
REMARK  169  A    between atoms: _392  and  _395
REMARK  170  A    between atoms: _395  and  _396
REMARK  171  A    between atoms: _399  and  _401
REMARK  172  A    between atoms: _401  and  _402
REMARK  173  A    between atoms: _401  and  _404
REMARK  174  A    between atoms: _407  and  _409
REMARK  175  A    between atoms: _409  and  _410
REMARK  176  A    between atoms: _409  and  _412
REMARK  177  A    between atoms: _412  and  _413
REMARK  178  A    between atoms: _415  and  _417
REMARK  179  A    between atoms: _417  and  _418
REMARK  180  A    between atoms: _417  and  _420
REMARK  181  A    between atoms: _420  and  _421
REMARK  182  A    between atoms: _431  and  _433
REMARK  183  A    between atoms: _433  and  _434
REMARK  184  A    between atoms: _436  and  _438
REMARK  185  A    between atoms: _438  and  _439
REMARK  186  A    between atoms: _438  and  _441
REMARK  187  A    between atoms: _441  and  _442
REMARK  188  A    between atoms: _442  and  _443
REMARK  189  A    between atoms: _446  and  _448
REMARK  190  A    between atoms: _448  and  _449
REMARK  191  A    between atoms: _451  and  _453
REMARK  192  A    between atoms: _453  and  _454
REMARK  193  A    between atoms: _453  and  _456
REMARK  194  A    between atoms: _456  and  _457
REMARK  195  A    between atoms: _458  and  _460
REMARK  196  A    between atoms: _460  and  _461
REMARK  197  A    between atoms: _464  and  _466
REMARK  198  A    between atoms: _466  and  _467
REMARK  199  A    between atoms: _466  and  _469
REMARK  200  A    between atoms: _469  and  _470
REMARK  201  A    between atoms: _470  and  _471
REMARK  202  A    between atoms: _471  and  _472
REMARK  203  A    between atoms: _481  and  _483
REMARK  204  A    between atoms: _483  and  _484
REMARK  205  A    between atoms: _483  and  _486
REMARK  206  A    between atoms: _486  and  _487
REMARK  207  A    between atoms: _487  and  _488
REMARK  208  A    between atoms: _488  and  _489
REMARK  209  A    between atoms: _489  and  _490
REMARK  210  A    between atoms: _494  and  _496
REMARK  211  A    between atoms: _496  and  _497
REMARK  212  A    between atoms: _496  and  _499
REMARK  213  A    between atoms: _499  and  _500
REMARK  214  A    between atoms: _505  and  _506
REMARK  215  A    between atoms: _508  and  _510
REMARK  216  A    between atoms: _510  and  _511
REMARK  217  A    between atoms: _513  and  _515
REMARK  218  A    between atoms: _515  and  _516
REMARK  219  A    between atoms: _515  and  _518
REMARK  220  A    between atoms: _518  and  _519
REMARK  221  A    between atoms: _522  and  _524
REMARK  222  A    between atoms: _524  and  _525
REMARK  223  A    between atoms: _524  and  _527
REMARK  224  A    between atoms: _527  and  _528
REMARK  225  A    between atoms: _533  and  _534
REMARK  226  A    between atoms: _536  and  _538
REMARK  227  A    between atoms: _538  and  _539
REMARK  228  A    between atoms: _538  and  _541
REMARK  229  A    between atoms: _541  and  _542
REMARK                            x       y       z     vdW  Elec       q    Type
REMARK                         _______ _______ _______ _____ _____    ______ ____
ROOT
ATOM      1  O   HOH     1       7.242  61.680  -2.563  0.00  0.00    +0.000 OA
ENDROOT
TORSDOF 0
REMARK  Name = ../refined-set-2016/2xbw/2xbw_pocket.pdb
REMARK  229 active torsions:
REMARK  status: ('A' for Active; 'I' for Inactive)
REMARK    1  A    between atoms: _1  and  _5
REMARK    2  A    between atoms: _5  and  _6
REMARK    3  A    between atoms: _5  and  _8
REMARK    4  A    between atoms: _8  and  _9
REMARK    5  A    between atoms: _12  and  _14
REMARK    6  A    between atoms: _14  and  _15
REMARK    7  A    between atoms: _14  and  _17
REMARK    8  A    between atoms: _20  and  _22
REMARK    9  A    between atoms: _22  and  _23
REMARK   10  A    between atoms: _22  and  _25
REMARK   11  A    between atoms: _25  and  _26
REMARK   12  A    between atoms: _31  and  _33
REMARK   13  A    between atoms: _33  and  _34
REMARK   14  A    between atoms: _33  and  _36
REMARK   15  A    between atoms: _36  and  _37
REMARK   16  A    between atoms: _37  and  _38
REMARK   17  A    between atoms: _43  and  _45
REMARK   18  A    between atoms: _45  and  _46
REMARK   19  A    between atoms: _45  and  _48
REMARK   20  A    between atoms: _48  and  _49
REMARK   21  A    between atoms: _55  and  _57
REMARK   22  A    between atoms: _57  and  _58
REMARK   23  A    between atoms: _57  and  _60
REMARK   24  A    between atoms: _60  and  _61
REMARK   25  A    between atoms: _64  and  _66
REMARK   26  A    between atoms: _66  and  _67
REMARK   27  A    between atoms: _66  and  _69
REMARK   28  A    between atoms: _69  and  _70
REMARK   29  A    between atoms: _70  and  _71
REMARK   30  A    between atoms: _71  and  _72
REMARK   31  A    between atoms: _72  and  _73
REMARK   32  A    between atoms: _77  and  _79
REMARK   33  A    between atoms: _79  and  _80
REMARK   34  A    between atoms: _79  and  _82
REMARK   35  A    between atoms: _82  and  _83
REMARK   36  A    between atoms: _83  and  _84
REMARK   37  A    between atoms: _87  and  _89
REMARK   38  A    between atoms: _89  and  _90
REMARK   39  A    between atoms: _89  and  _92
REMARK   40  A    between atoms: _92  and  _93
REMARK   41  A    between atoms: _96  and  _98
REMARK   42  A    between atoms: _98  and  _99
REMARK   43  A    between atoms: _98  and  _101
REMARK   44  A    between atoms: _101  and  _102
REMARK   45  A    between atoms: _107  and  _108
REMARK   46  A    between atoms: _110  and  _112
REMARK   47  A    between atoms: _112  and  _113
REMARK   48  A    between atoms: _112  and  _115
REMARK   49  A    between atoms: _115  and  _116
REMARK   50  A    between atoms: _119  and  _121
REMARK   51  A    between atoms: _121  and  _122
REMARK   52  A    between atoms: _121  and  _124
REMARK   53  A    between atoms: _124  and  _125
REMARK   54  A    between atoms: _128  and  _130
REMARK   55  A    between atoms: _130  and  _131
REMARK   56  A    between atoms: _130  and  _133
REMARK   57  A    between atoms: _136  and  _138
REMARK   58  A    between atoms: _138  and  _139
REMARK   59  A    between atoms: _138  and  _141
REMARK   60  A    between atoms: _141  and  _142
REMARK   61  A    between atoms: _142  and  _143
REMARK   62  A    between atoms: _143  and  _144
REMARK   63  A    between atoms: _153  and  _155
REMARK   64  A    between atoms: _155  and  _156
REMARK   65  A    between atoms: _155  and  _158
REMARK   66  A    between atoms: _158  and  _159
REMARK   67  A    between atoms: _162  and  _164
REMARK   68  A    between atoms: _164  and  _165
REMARK   69  A    between atoms: _164  and  _167
REMARK   70  A    between atoms: _167  and  _168
REMARK   71  A    between atoms: _173  and  _175
REMARK   72  A    between atoms: _175  and  _176
REMARK   73  A    between atoms: _175  and  _178
REMARK   74  A    between atoms: _178  and  _179
REMARK   75  A    between atoms: _179  and  _180
REMARK   76  A    between atoms: _183  and  _185
REMARK   77  A    between atoms: _185  and  _186
REMARK   78  A    between atoms: _185  and  _188
REMARK   79  A    between atoms: _188  and  _189
REMARK   80  A    between atoms: _189  and  _190
REMARK   81  A    between atoms: _190  and  _191
REMARK   82  A    between atoms: _191  and  _192
REMARK   83  A    between atoms: _196  and  _198
REMARK   84  A    between atoms: _198  and  _199
REMARK   85  A    between atoms: _201  and  _203
REMARK   86  A    between atoms: _203  and  _204
REMARK   87  A    between atoms: _203  and  _206
REMARK   88  A    between atoms: _209  and  _211
REMARK   89  A    between atoms: _211  and  _212
REMARK   90  A    between atoms: _211  and  _214
REMARK   91  A    between atoms: _214  and  _215
REMARK   92  A    between atoms: _217  and  _219
REMARK   93  A    between atoms: _219  and  _220
REMARK   94  A    between atoms: _219  and  _222
REMARK   95  A    between atoms: _222  and  _223
REMARK   96  A    between atoms: _225  and  _227
REMARK   97  A    between atoms: _227  and  _228
REMARK   98  A    between atoms: _227  and  _230
REMARK   99  A    between atoms: _230  and  _231
REMARK  100  A    between atoms: _237  and  _239
REMARK  101  A    between atoms: _239  and  _240
REMARK  102  A    between atoms: _239  and  _242
REMARK  103  A    between atoms: _242  and  _243
REMARK  104  A    between atoms: _246  and  _248
REMARK  105  A    between atoms: _248  and  _249
REMARK  106  A    between atoms: _248  and  _251
REMARK  107  A    between atoms: _251  and  _252
REMARK  108  A    between atoms: _255  and  _257
REMARK  109  A    between atoms: _257  and  _258
REMARK  110  A    between atoms: _257  and  _260
REMARK  111  A    between atoms: _260  and  _261
REMARK  112  A    between atoms: _264  and  _266
REMARK  113  A    between atoms: _266  and  _267
REMARK  114  A    between atoms: _266  and  _269
REMARK  115  A    between atoms: _269  and  _270
REMARK  116  A    between atoms: _270  and  _271
REMARK  117  A    between atoms: _273  and  _275
REMARK  118  A    between atoms: _275  and  _276
REMARK  119  A    between atoms: _275  and  _278
REMARK  120  A    between atoms: _278  and  _279
REMARK  121  A    between atoms: _285  and  _287
REMARK  122  A    between atoms: _287  and  _288
REMARK  123  A    between atoms: _287  and  _290
REMARK  124  A    between atoms: _292  and  _294
REMARK  125  A    between atoms: _294  and  _295
REMARK  126  A    between atoms: _298  and  _300
REMARK  127  A    between atoms: _300  and  _301
REMARK  128  A    between atoms: _303  and  _305
REMARK  129  A    between atoms: _305  and  _306
REMARK  130  A    between atoms: _305  and  _308
REMARK  131  A    between atoms: _308  and  _309
REMARK  132  A    between atoms: _309  and  _310
REMARK  133  A    between atoms: _313  and  _315
REMARK  134  A    between atoms: _315  and  _316
REMARK  135  A    between atoms: _315  and  _318
REMARK  136  A    between atoms: _318  and  _319
REMARK  137  A    between atoms: _322  and  _324
REMARK  138  A    between atoms: _324  and  _325
REMARK  139  A    between atoms: _328  and  _330
REMARK  140  A    between atoms: _330  and  _331
REMARK  141  A    between atoms: _330  and  _333
REMARK  142  A    between atoms: _333  and  _334
REMARK  143  A    between atoms: _334  and  _457
REMARK  144  A    between atoms: _335  and  _337
REMARK  145  A    between atoms: _337  and  _338
REMARK  146  A    between atoms: _337  and  _340
REMARK  147  A    between atoms: _340  and  _341
REMARK  148  A    between atoms: _341  and  _342
REMARK  149  A    between atoms: _347  and  _349
REMARK  150  A    between atoms: _349  and  _350
REMARK  151  A    between atoms: _352  and  _354
REMARK  152  A    between atoms: _354  and  _355
REMARK  153  A    between atoms: _354  and  _357
REMARK  154  A    between atoms: _357  and  _358
REMARK  155  A    between atoms: _361  and  _363
REMARK  156  A    between atoms: _363  and  _364
REMARK  157  A    between atoms: _363  and  _366
REMARK  158  A    between atoms: _366  and  _367
REMARK  159  A    between atoms: _369  and  _371
REMARK  160  A    between atoms: _371  and  _372
REMARK  161  A    between atoms: _374  and  _376
REMARK  162  A    between atoms: _376  and  _377
REMARK  163  A    between atoms: _379  and  _381
REMARK  164  A    between atoms: _381  and  _382
REMARK  165  A    between atoms: _381  and  _384
REMARK  166  A    between atoms: _384  and  _385
REMARK  167  A    between atoms: _390  and  _392
REMARK  168  A    between atoms: _392  and  _393
REMARK  169  A    between atoms: _392  and  _395
REMARK  170  A    between atoms: _395  and  _396
REMARK  171  A    between atoms: _399  and  _401
REMARK  172  A    between atoms: _401  and  _402
REMARK  173  A    between atoms: _401  and  _404
REMARK  174  A    between atoms: _407  and  _409
REMARK  175  A    between atoms: _409  and  _410
REMARK  176  A    between atoms: _409  and  _412
REMARK  177  A    between atoms: _412  and  _413
REMARK  178  A    between atoms: _415  and  _417
REMARK  179  A    between atoms: _417  and  _418
REMARK  180  A    between atoms: _417  and  _420
REMARK  181  A    between atoms: _420  and  _421
REMARK  182  A    between atoms: _431  and  _433
REMARK  183  A    between atoms: _433  and  _434
REMARK  184  A    between atoms: _436  and  _438
REMARK  185  A    between atoms: _438  and  _439
REMARK  186  A    between atoms: _438  and  _441
REMARK  187  A    between atoms: _441  and  _442
REMARK  188  A    between atoms: _442  and  _443
REMARK  189  A    between atoms: _446  and  _448
REMARK  190  A    between atoms: _448  and  _449
REMARK  191  A    between atoms: _451  and  _453
REMARK  192  A    between atoms: _453  and  _454
REMARK  193  A    between atoms: _453  and  _456
REMARK  194  A    between atoms: _456  and  _457
REMARK  195  A    between atoms: _458  and  _460
REMARK  196  A    between atoms: _460  and  _461
REMARK  197  A    between atoms: _464  and  _466
REMARK  198  A    between atoms: _466  and  _467
REMARK  199  A    between atoms: _466  and  _469
REMARK  200  A    between atoms: _469  and  _470
REMARK  201  A    between atoms: _470  and  _471
REMARK  202  A    between atoms: _471  and  _472
REMARK  203  A    between atoms: _481  and  _483
REMARK  204  A    between atoms: _483  and  _484
REMARK  205  A    between atoms: _483  and  _486
REMARK  206  A    between atoms: _486  and  _487
REMARK  207  A    between atoms: _487  and  _488
REMARK  208  A    between atoms: _488  and  _489
REMARK  209  A    between atoms: _489  and  _490
REMARK  210  A    between atoms: _494  and  _496
REMARK  211  A    between atoms: _496  and  _497
REMARK  212  A    between atoms: _496  and  _499
REMARK  213  A    between atoms: _499  and  _500
REMARK  214  A    between atoms: _505  and  _506
REMARK  215  A    between atoms: _508  and  _510
REMARK  216  A    between atoms: _510  and  _511
REMARK  217  A    between atoms: _513  and  _515
REMARK  218  A    between atoms: _515  and  _516
REMARK  219  A    between atoms: _515  and  _518
REMARK  220  A    between atoms: _518  and  _519
REMARK  221  A    between atoms: _522  and  _524
REMARK  222  A    between atoms: _524  and  _525
REMARK  223  A    between atoms: _524  and  _527
REMARK  224  A    between atoms: _527  and  _528
REMARK  225  A    between atoms: _533  and  _534
REMARK  226  A    between atoms: _536  and  _538
REMARK  227  A    between atoms: _538  and  _539
REMARK  228  A    between atoms: _538  and  _541
REMARK  229  A    between atoms: _541  and  _542
REMARK                            x       y       z     vdW  Elec       q    Type
REMARK                         _______ _______ _______ _____ _____    ______ ____
ROOT
ATOM      1  O   HOH     1      10.577  62.814  -1.530  0.00  0.00    +0.000 OA
ENDROOT
TORSDOF 0
REMARK  Name = ../refined-set-2016/2xbw/2xbw_pocket.pdb
REMARK  229 active torsions:
REMARK  status: ('A' for Active; 'I' for Inactive)
REMARK    1  A    between atoms: _1  and  _5
REMARK    2  A    between atoms: _5  and  _6
REMARK    3  A    between atoms: _5  and  _8
REMARK    4  A    between atoms: _8  and  _9
REMARK    5  A    between atoms: _12  and  _14
REMARK    6  A    between atoms: _14  and  _15
REMARK    7  A    between atoms: _14  and  _17
REMARK    8  A    between atoms: _20  and  _22
REMARK    9  A    between atoms: _22  and  _23
REMARK   10  A    between atoms: _22  and  _25
REMARK   11  A    between atoms: _25  and  _26
REMARK   12  A    between atoms: _31  and  _33
REMARK   13  A    between atoms: _33  and  _34
REMARK   14  A    between atoms: _33  and  _36
REMARK   15  A    between atoms: _36  and  _37
REMARK   16  A    between atoms: _37  and  _38
REMARK   17  A    between atoms: _43  and  _45
REMARK   18  A    between atoms: _45  and  _46
REMARK   19  A    between atoms: _45  and  _48
REMARK   20  A    between atoms: _48  and  _49
REMARK   21  A    between atoms: _55  and  _57
REMARK   22  A    between atoms: _57  and  _58
REMARK   23  A    between atoms: _57  and  _60
REMARK   24  A    between atoms: _60  and  _61
REMARK   25  A    between atoms: _64  and  _66
REMARK   26  A    between atoms: _66  and  _67
REMARK   27  A    between atoms: _66  and  _69
REMARK   28  A    between atoms: _69  and  _70
REMARK   29  A    between atoms: _70  and  _71
REMARK   30  A    between atoms: _71  and  _72
REMARK   31  A    between atoms: _72  and  _73
REMARK   32  A    between atoms: _77  and  _79
REMARK   33  A    between atoms: _79  and  _80
REMARK   34  A    between atoms: _79  and  _82
REMARK   35  A    between atoms: _82  and  _83
REMARK   36  A    between atoms: _83  and  _84
REMARK   37  A    between atoms: _87  and  _89
REMARK   38  A    between atoms: _89  and  _90
REMARK   39  A    between atoms: _89  and  _92
REMARK   40  A    between atoms: _92  and  _93
REMARK   41  A    between atoms: _96  and  _98
REMARK   42  A    between atoms: _98  and  _99
REMARK   43  A    between atoms: _98  and  _101
REMARK   44  A    between atoms: _101  and  _102
REMARK   45  A    between atoms: _107  and  _108
REMARK   46  A    between atoms: _110  and  _112
REMARK   47  A    between atoms: _112  and  _113
REMARK   48  A    between atoms: _112  and  _115
REMARK   49  A    between atoms: _115  and  _116
REMARK   50  A    between atoms: _119  and  _121
REMARK   51  A    between atoms: _121  and  _122
REMARK   52  A    between atoms: _121  and  _124
REMARK   53  A    between atoms: _124  and  _125
REMARK   54  A    between atoms: _128  and  _130
REMARK   55  A    between atoms: _130  and  _131
REMARK   56  A    between atoms: _130  and  _133
REMARK   57  A    between atoms: _136  and  _138
REMARK   58  A    between atoms: _138  and  _139
REMARK   59  A    between atoms: _138  and  _141
REMARK   60  A    between atoms: _141  and  _142
REMARK   61  A    between atoms: _142  and  _143
REMARK   62  A    between atoms: _143  and  _144
REMARK   63  A    between atoms: _153  and  _155
REMARK   64  A    between atoms: _155  and  _156
REMARK   65  A    between atoms: _155  and  _158
REMARK   66  A    between atoms: _158  and  _159
REMARK   67  A    between atoms: _162  and  _164
REMARK   68  A    between atoms: _164  and  _165
REMARK   69  A    between atoms: _164  and  _167
REMARK   70  A    between atoms: _167  and  _168
REMARK   71  A    between atoms: _173  and  _175
REMARK   72  A    between atoms: _175  and  _176
REMARK   73  A    between atoms: _175  and  _178
REMARK   74  A    between atoms: _178  and  _179
REMARK   75  A    between atoms: _179  and  _180
REMARK   76  A    between atoms: _183  and  _185
REMARK   77  A    between atoms: _185  and  _186
REMARK   78  A    between atoms: _185  and  _188
REMARK   79  A    between atoms: _188  and  _189
REMARK   80  A    between atoms: _189  and  _190
REMARK   81  A    between atoms: _190  and  _191
REMARK   82  A    between atoms: _191  and  _192
REMARK   83  A    between atoms: _196  and  _198
REMARK   84  A    between atoms: _198  and  _199
REMARK   85  A    between atoms: _201  and  _203
REMARK   86  A    between atoms: _203  and  _204
REMARK   87  A    between atoms: _203  and  _206
REMARK   88  A    between atoms: _209  and  _211
REMARK   89  A    between atoms: _211  and  _212
REMARK   90  A    between atoms: _211  and  _214
REMARK   91  A    between atoms: _214  and  _215
REMARK   92  A    between atoms: _217  and  _219
REMARK   93  A    between atoms: _219  and  _220
REMARK   94  A    between atoms: _219  and  _222
REMARK   95  A    between atoms: _222  and  _223
REMARK   96  A    between atoms: _225  and  _227
REMARK   97  A    between atoms: _227  and  _228
REMARK   98  A    between atoms: _227  and  _230
REMARK   99  A    between atoms: _230  and  _231
REMARK  100  A    between atoms: _237  and  _239
REMARK  101  A    between atoms: _239  and  _240
REMARK  102  A    between atoms: _239  and  _242
REMARK  103  A    between atoms: _242  and  _243
REMARK  104  A    between atoms: _246  and  _248
REMARK  105  A    between atoms: _248  and  _249
REMARK  106  A    between atoms: _248  and  _251
REMARK  107  A    between atoms: _251  and  _252
REMARK  108  A    between atoms: _255  and  _257
REMARK  109  A    between atoms: _257  and  _258
REMARK  110  A    between atoms: _257  and  _260
REMARK  111  A    between atoms: _260  and  _261
REMARK  112  A    between atoms: _264  and  _266
REMARK  113  A    between atoms: _266  and  _267
REMARK  114  A    between atoms: _266  and  _269
REMARK  115  A    between atoms: _269  and  _270
REMARK  116  A    between atoms: _270  and  _271
REMARK  117  A    between atoms: _273  and  _275
REMARK  118  A    between atoms: _275  and  _276
REMARK  119  A    between atoms: _275  and  _278
REMARK  120  A    between atoms: _278  and  _279
REMARK  121  A    between atoms: _285  and  _287
REMARK  122  A    between atoms: _287  and  _288
REMARK  123  A    between atoms: _287  and  _290
REMARK  124  A    between atoms: _292  and  _294
REMARK  125  A    between atoms: _294  and  _295
REMARK  126  A    between atoms: _298  and  _300
REMARK  127  A    between atoms: _300  and  _301
REMARK  128  A    between atoms: _303  and  _305
REMARK  129  A    between atoms: _305  and  _306
REMARK  130  A    between atoms: _305  and  _308
REMARK  131  A    between atoms: _308  and  _309
REMARK  132  A    between atoms: _309  and  _310
REMARK  133  A    between atoms: _313  and  _315
REMARK  134  A    between atoms: _315  and  _316
REMARK  135  A    between atoms: _315  and  _318
REMARK  136  A    between atoms: _318  and  _319
REMARK  137  A    between atoms: _322  and  _324
REMARK  138  A    between atoms: _324  and  _325
REMARK  139  A    between atoms: _328  and  _330
REMARK  140  A    between atoms: _330  and  _331
REMARK  141  A    between atoms: _330  and  _333
REMARK  142  A    between atoms: _333  and  _334
REMARK  143  A    between atoms: _334  and  _457
REMARK  144  A    between atoms: _335  and  _337
REMARK  145  A    between atoms: _337  and  _338
REMARK  146  A    between atoms: _337  and  _340
REMARK  147  A    between atoms: _340  and  _341
REMARK  148  A    between atoms: _341  and  _342
REMARK  149  A    between atoms: _347  and  _349
REMARK  150  A    between atoms: _349  and  _350
REMARK  151  A    between atoms: _352  and  _354
REMARK  152  A    between atoms: _354  and  _355
REMARK  153  A    between atoms: _354  and  _357
REMARK  154  A    between atoms: _357  and  _358
REMARK  155  A    between atoms: _361  and  _363
REMARK  156  A    between atoms: _363  and  _364
REMARK  157  A    between atoms: _363  and  _366
REMARK  158  A    between atoms: _366  and  _367
REMARK  159  A    between atoms: _369  and  _371
REMARK  160  A    between atoms: _371  and  _372
REMARK  161  A    between atoms: _374  and  _376
REMARK  162  A    between atoms: _376  and  _377
REMARK  163  A    between atoms: _379  and  _381
REMARK  164  A    between atoms: _381  and  _382
REMARK  165  A    between atoms: _381  and  _384
REMARK  166  A    between atoms: _384  and  _385
REMARK  167  A    between atoms: _390  and  _392
REMARK  168  A    between atoms: _392  and  _393
REMARK  169  A    between atoms: _392  and  _395
REMARK  170  A    between atoms: _395  and  _396
REMARK  171  A    between atoms: _399  and  _401
REMARK  172  A    between atoms: _401  and  _402
REMARK  173  A    between atoms: _401  and  _404
REMARK  174  A    between atoms: _407  and  _409
REMARK  175  A    between atoms: _409  and  _410
REMARK  176  A    between atoms: _409  and  _412
REMARK  177  A    between atoms: _412  and  _413
REMARK  178  A    between atoms: _415  and  _417
REMARK  179  A    between atoms: _417  and  _418
REMARK  180  A    between atoms: _417  and  _420
REMARK  181  A    between atoms: _420  and  _421
REMARK  182  A    between atoms: _431  and  _433
REMARK  183  A    between atoms: _433  and  _434
REMARK  184  A    between atoms: _436  and  _438
REMARK  185  A    between atoms: _438  and  _439
REMARK  186  A    between atoms: _438  and  _441
REMARK  187  A    between atoms: _441  and  _442
REMARK  188  A    between atoms: _442  and  _443
REMARK  189  A    between atoms: _446  and  _448
REMARK  190  A    between atoms: _448  and  _449
REMARK  191  A    between atoms: _451  and  _453
REMARK  192  A    between atoms: _453  and  _454
REMARK  193  A    between atoms: _453  and  _456
REMARK  194  A    between atoms: _456  and  _457
REMARK  195  A    between atoms: _458  and  _460
REMARK  196  A    between atoms: _460  and  _461
REMARK  197  A    between atoms: _464  and  _466
REMARK  198  A    between atoms: _466  and  _467
REMARK  199  A    between atoms: _466  and  _469
REMARK  200  A    between atoms: _469  and  _470
REMARK  201  A    between atoms: _470  and  _471
REMARK  202  A    between atoms: _471  and  _472
REMARK  203  A    between atoms: _481  and  _483
REMARK  204  A    between atoms: _483  and  _484
REMARK  205  A    between atoms: _483  and  _486
REMARK  206  A    between atoms: _486  and  _487
REMARK  207  A    between atoms: _487  and  _488
REMARK  208  A    between atoms: _488  and  _489
REMARK  209  A    between atoms: _489  and  _490
REMARK  210  A    between atoms: _494  and  _496
REMARK  211  A    between atoms: _496  and  _497
REMARK  212  A    between atoms: _496  and  _499
REMARK  213  A    between atoms: _499  and  _500
REMARK  214  A    between atoms: _505  and  _506
REMARK  215  A    between atoms: _508  and  _510
REMARK  216  A    between atoms: _510  and  _511
REMARK  217  A    between atoms: _513  and  _515
REMARK  218  A    between atoms: _515  and  _516
REMARK  219  A    between atoms: _515  and  _518
REMARK  220  A    between atoms: _518  and  _519
REMARK  221  A    between atoms: _522  and  _524
REMARK  222  A    between atoms: _524  and  _525
REMARK  223  A    between atoms: _524  and  _527
REMARK  224  A    between atoms: _527  and  _528
REMARK  225  A    between atoms: _533  and  _534
REMARK  226  A    between atoms: _536  and  _538
REMARK  227  A    between atoms: _538  and  _539
REMARK  228  A    between atoms: _538  and  _541
REMARK  229  A    between atoms: _541  and  _542
REMARK                            x       y       z     vdW  Elec       q    Type
REMARK                         _______ _______ _______ _____ _____    ______ ____
ROOT
ATOM      1  O   HOH     1      13.576  73.718  -2.047  0.00  0.00    +0.000 OA
ENDROOT
TORSDOF 0
REMARK  Name = ../refined-set-2016/2xbw/2xbw_pocket.pdb
REMARK  229 active torsions:
REMARK  status: ('A' for Active; 'I' for Inactive)
REMARK    1  A    between atoms: _1  and  _5
REMARK    2  A    between atoms: _5  and  _6
REMARK    3  A    between atoms: _5  and  _8
REMARK    4  A    between atoms: _8  and  _9
REMARK    5  A    between atoms: _12  and  _14
REMARK    6  A    between atoms: _14  and  _15
REMARK    7  A    between atoms: _14  and  _17
REMARK    8  A    between atoms: _20  and  _22
REMARK    9  A    between atoms: _22  and  _23
REMARK   10  A    between atoms: _22  and  _25
REMARK   11  A    between atoms: _25  and  _26
REMARK   12  A    between atoms: _31  and  _33
REMARK   13  A    between atoms: _33  and  _34
REMARK   14  A    between atoms: _33  and  _36
REMARK   15  A    between atoms: _36  and  _37
REMARK   16  A    between atoms: _37  and  _38
REMARK   17  A    between atoms: _43  and  _45
REMARK   18  A    between atoms: _45  and  _46
REMARK   19  A    between atoms: _45  and  _48
REMARK   20  A    between atoms: _48  and  _49
REMARK   21  A    between atoms: _55  and  _57
REMARK   22  A    between atoms: _57  and  _58
REMARK   23  A    between atoms: _57  and  _60
REMARK   24  A    between atoms: _60  and  _61
REMARK   25  A    between atoms: _64  and  _66
REMARK   26  A    between atoms: _66  and  _67
REMARK   27  A    between atoms: _66  and  _69
REMARK   28  A    between atoms: _69  and  _70
REMARK   29  A    between atoms: _70  and  _71
REMARK   30  A    between atoms: _71  and  _72
REMARK   31  A    between atoms: _72  and  _73
REMARK   32  A    between atoms: _77  and  _79
REMARK   33  A    between atoms: _79  and  _80
REMARK   34  A    between atoms: _79  and  _82
REMARK   35  A    between atoms: _82  and  _83
REMARK   36  A    between atoms: _83  and  _84
REMARK   37  A    between atoms: _87  and  _89
REMARK   38  A    between atoms: _89  and  _90
REMARK   39  A    between atoms: _89  and  _92
REMARK   40  A    between atoms: _92  and  _93
REMARK   41  A    between atoms: _96  and  _98
REMARK   42  A    between atoms: _98  and  _99
REMARK   43  A    between atoms: _98  and  _101
REMARK   44  A    between atoms: _101  and  _102
REMARK   45  A    between atoms: _107  and  _108
REMARK   46  A    between atoms: _110  and  _112
REMARK   47  A    between atoms: _112  and  _113
REMARK   48  A    between atoms: _112  and  _115
REMARK   49  A    between atoms: _115  and  _116
REMARK   50  A    between atoms: _119  and  _121
REMARK   51  A    between atoms: _121  and  _122
REMARK   52  A    between atoms: _121  and  _124
REMARK   53  A    between atoms: _124  and  _125
REMARK   54  A    between atoms: _128  and  _130
REMARK   55  A    between atoms: _130  and  _131
REMARK   56  A    between atoms: _130  and  _133
REMARK   57  A    between atoms: _136  and  _138
REMARK   58  A    between atoms: _138  and  _139
REMARK   59  A    between atoms: _138  and  _141
REMARK   60  A    between atoms: _141  and  _142
REMARK   61  A    between atoms: _142  and  _143
REMARK   62  A    between atoms: _143  and  _144
REMARK   63  A    between atoms: _153  and  _155
REMARK   64  A    between atoms: _155  and  _156
REMARK   65  A    between atoms: _155  and  _158
REMARK   66  A    between atoms: _158  and  _159
REMARK   67  A    between atoms: _162  and  _164
REMARK   68  A    between atoms: _164  and  _165
REMARK   69  A    between atoms: _164  and  _167
REMARK   70  A    between atoms: _167  and  _168
REMARK   71  A    between atoms: _173  and  _175
REMARK   72  A    between atoms: _175  and  _176
REMARK   73  A    between atoms: _175  and  _178
REMARK   74  A    between atoms: _178  and  _179
REMARK   75  A    between atoms: _179  and  _180
REMARK   76  A    between atoms: _183  and  _185
REMARK   77  A    between atoms: _185  and  _186
REMARK   78  A    between atoms: _185  and  _188
REMARK   79  A    between atoms: _188  and  _189
REMARK   80  A    between atoms: _189  and  _190
REMARK   81  A    between atoms: _190  and  _191
REMARK   82  A    between atoms: _191  and  _192
REMARK   83  A    between atoms: _196  and  _198
REMARK   84  A    between atoms: _198  and  _199
REMARK   85  A    between atoms: _201  and  _203
REMARK   86  A    between atoms: _203  and  _204
REMARK   87  A    between atoms: _203  and  _206
REMARK   88  A    between atoms: _209  and  _211
REMARK   89  A    between atoms: _211  and  _212
REMARK   90  A    between atoms: _211  and  _214
REMARK   91  A    between atoms: _214  and  _215
REMARK   92  A    between atoms: _217  and  _219
REMARK   93  A    between atoms: _219  and  _220
REMARK   94  A    between atoms: _219  and  _222
REMARK   95  A    between atoms: _222  and  _223
REMARK   96  A    between atoms: _225  and  _227
REMARK   97  A    between atoms: _227  and  _228
REMARK   98  A    between atoms: _227  and  _230
REMARK   99  A    between atoms: _230  and  _231
REMARK  100  A    between atoms: _237  and  _239
REMARK  101  A    between atoms: _239  and  _240
REMARK  102  A    between atoms: _239  and  _242
REMARK  103  A    between atoms: _242  and  _243
REMARK  104  A    between atoms: _246  and  _248
REMARK  105  A    between atoms: _248  and  _249
REMARK  106  A    between atoms: _248  and  _251
REMARK  107  A    between atoms: _251  and  _252
REMARK  108  A    between atoms: _255  and  _257
REMARK  109  A    between atoms: _257  and  _258
REMARK  110  A    between atoms: _257  and  _260
REMARK  111  A    between atoms: _260  and  _261
REMARK  112  A    between atoms: _264  and  _266
REMARK  113  A    between atoms: _266  and  _267
REMARK  114  A    between atoms: _266  and  _269
REMARK  115  A    between atoms: _269  and  _270
REMARK  116  A    between atoms: _270  and  _271
REMARK  117  A    between atoms: _273  and  _275
REMARK  118  A    between atoms: _275  and  _276
REMARK  119  A    between atoms: _275  and  _278
REMARK  120  A    between atoms: _278  and  _279
REMARK  121  A    between atoms: _285  and  _287
REMARK  122  A    between atoms: _287  and  _288
REMARK  123  A    between atoms: _287  and  _290
REMARK  124  A    between atoms: _292  and  _294
REMARK  125  A    between atoms: _294  and  _295
REMARK  126  A    between atoms: _298  and  _300
REMARK  127  A    between atoms: _300  and  _301
REMARK  128  A    between atoms: _303  and  _305
REMARK  129  A    between atoms: _305  and  _306
REMARK  130  A    between atoms: _305  and  _308
REMARK  131  A    between atoms: _308  and  _309
REMARK  132  A    between atoms: _309  and  _310
REMARK  133  A    between atoms: _313  and  _315
REMARK  134  A    between atoms: _315  and  _316
REMARK  135  A    between atoms: _315  and  _318
REMARK  136  A    between atoms: _318  and  _319
REMARK  137  A    between atoms: _322  and  _324
REMARK  138  A    between atoms: _324  and  _325
REMARK  139  A    between atoms: _328  and  _330
REMARK  140  A    between atoms: _330  and  _331
REMARK  141  A    between atoms: _330  and  _333
REMARK  142  A    between atoms: _333  and  _334
REMARK  143  A    between atoms: _334  and  _457
REMARK  144  A    between atoms: _335  and  _337
REMARK  145  A    between atoms: _337  and  _338
REMARK  146  A    between atoms: _337  and  _340
REMARK  147  A    between atoms: _340  and  _341
REMARK  148  A    between atoms: _341  and  _342
REMARK  149  A    between atoms: _347  and  _349
REMARK  150  A    between atoms: _349  and  _350
REMARK  151  A    between atoms: _352  and  _354
REMARK  152  A    between atoms: _354  and  _355
REMARK  153  A    between atoms: _354  and  _357
REMARK  154  A    between atoms: _357  and  _358
REMARK  155  A    between atoms: _361  and  _363
REMARK  156  A    between atoms: _363  and  _364
REMARK  157  A    between atoms: _363  and  _366
REMARK  158  A    between atoms: _366  and  _367
REMARK  159  A    between atoms: _369  and  _371
REMARK  160  A    between atoms: _371  and  _372
REMARK  161  A    between atoms: _374  and  _376
REMARK  162  A    between atoms: _376  and  _377
REMARK  163  A    between atoms: _379  and  _381
REMARK  164  A    between atoms: _381  and  _382
REMARK  165  A    between atoms: _381  and  _384
REMARK  166  A    between atoms: _384  and  _385
REMARK  167  A    between atoms: _390  and  _392
REMARK  168  A    between atoms: _392  and  _393
REMARK  169  A    between atoms: _392  and  _395
REMARK  170  A    between atoms: _395  and  _396
REMARK  171  A    between atoms: _399  and  _401
REMARK  172  A    between atoms: _401  and  _402
REMARK  173  A    between atoms: _401  and  _404
REMARK  174  A    between atoms: _407  and  _409
REMARK  175  A    between atoms: _409  and  _410
REMARK  176  A    between atoms: _409  and  _412
REMARK  177  A    between atoms: _412  and  _413
REMARK  178  A    between atoms: _415  and  _417
REMARK  179  A    between atoms: _417  and  _418
REMARK  180  A    between atoms: _417  and  _420
REMARK  181  A    between atoms: _420  and  _421
REMARK  182  A    between atoms: _431  and  _433
REMARK  183  A    between atoms: _433  and  _434
REMARK  184  A    between atoms: _436  and  _438
REMARK  185  A    between atoms: _438  and  _439
REMARK  186  A    between atoms: _438  and  _441
REMARK  187  A    between atoms: _441  and  _442
REMARK  188  A    between atoms: _442  and  _443
REMARK  189  A    between atoms: _446  and  _448
REMARK  190  A    between atoms: _448  and  _449
REMARK  191  A    between atoms: _451  and  _453
REMARK  192  A    between atoms: _453  and  _454
REMARK  193  A    between atoms: _453  and  _456
REMARK  194  A    between atoms: _456  and  _457
REMARK  195  A    between atoms: _458  and  _460
REMARK  196  A    between atoms: _460  and  _461
REMARK  197  A    between atoms: _464  and  _466
REMARK  198  A    between atoms: _466  and  _467
REMARK  199  A    between atoms: _466  and  _469
REMARK  200  A    between atoms: _469  and  _470
REMARK  201  A    between atoms: _470  and  _471
REMARK  202  A    between atoms: _471  and  _472
REMARK  203  A    between atoms: _481  and  _483
REMARK  204  A    between atoms: _483  and  _484
REMARK  205  A    between atoms: _483  and  _486
REMARK  206  A    between atoms: _486  and  _487
REMARK  207  A    between atoms: _487  and  _488
REMARK  208  A    between atoms: _488  and  _489
REMARK  209  A    between atoms: _489  and  _490
REMARK  210  A    between atoms: _494  and  _496
REMARK  211  A    between atoms: _496  and  _497
REMARK  212  A    between atoms: _496  and  _499
REMARK  213  A    between atoms: _499  and  _500
REMARK  214  A    between atoms: _505  and  _506
REMARK  215  A    between atoms: _508  and  _510
REMARK  216  A    between atoms: _510  and  _511
REMARK  217  A    between atoms: _513  and  _515
REMARK  218  A    between atoms: _515  and  _516
REMARK  219  A    between atoms: _515  and  _518
REMARK  220  A    between atoms: _518  and  _519
REMARK  221  A    between atoms: _522  and  _524
REMARK  222  A    between atoms: _524  and  _525
REMARK  223  A    between atoms: _524  and  _527
REMARK  224  A    between atoms: _527  and  _528
REMARK  225  A    between atoms: _533  and  _534
REMARK  226  A    between atoms: _536  and  _538
REMARK  227  A    between atoms: _538  and  _539
REMARK  228  A    between atoms: _538  and  _541
REMARK  229  A    between atoms: _541  and  _542
REMARK                            x       y       z     vdW  Elec       q    Type
REMARK                         _______ _______ _______ _____ _____    ______ ____
ROOT
ATOM      1  O   HOH     1       8.927  72.967  11.492  0.00  0.00    +0.000 OA
ENDROOT
TORSDOF 0
REMARK  Name = ../refined-set-2016/2xbw/2xbw_pocket.pdb
REMARK  229 active torsions:
REMARK  status: ('A' for Active; 'I' for Inactive)
REMARK    1  A    between atoms: _1  and  _5
REMARK    2  A    between atoms: _5  and  _6
REMARK    3  A    between atoms: _5  and  _8
REMARK    4  A    between atoms: _8  and  _9
REMARK    5  A    between atoms: _12  and  _14
REMARK    6  A    between atoms: _14  and  _15
REMARK    7  A    between atoms: _14  and  _17
REMARK    8  A    between atoms: _20  and  _22
REMARK    9  A    between atoms: _22  and  _23
REMARK   10  A    between atoms: _22  and  _25
REMARK   11  A    between atoms: _25  and  _26
REMARK   12  A    between atoms: _31  and  _33
REMARK   13  A    between atoms: _33  and  _34
REMARK   14  A    between atoms: _33  and  _36
REMARK   15  A    between atoms: _36  and  _37
REMARK   16  A    between atoms: _37  and  _38
REMARK   17  A    between atoms: _43  and  _45
REMARK   18  A    between atoms: _45  and  _46
REMARK   19  A    between atoms: _45  and  _48
REMARK   20  A    between atoms: _48  and  _49
REMARK   21  A    between atoms: _55  and  _57
REMARK   22  A    between atoms: _57  and  _58
REMARK   23  A    between atoms: _57  and  _60
REMARK   24  A    between atoms: _60  and  _61
REMARK   25  A    between atoms: _64  and  _66
REMARK   26  A    between atoms: _66  and  _67
REMARK   27  A    between atoms: _66  and  _69
REMARK   28  A    between atoms: _69  and  _70
REMARK   29  A    between atoms: _70  and  _71
REMARK   30  A    between atoms: _71  and  _72
REMARK   31  A    between atoms: _72  and  _73
REMARK   32  A    between atoms: _77  and  _79
REMARK   33  A    between atoms: _79  and  _80
REMARK   34  A    between atoms: _79  and  _82
REMARK   35  A    between atoms: _82  and  _83
REMARK   36  A    between atoms: _83  and  _84
REMARK   37  A    between atoms: _87  and  _89
REMARK   38  A    between atoms: _89  and  _90
REMARK   39  A    between atoms: _89  and  _92
REMARK   40  A    between atoms: _92  and  _93
REMARK   41  A    between atoms: _96  and  _98
REMARK   42  A    between atoms: _98  and  _99
REMARK   43  A    between atoms: _98  and  _101
REMARK   44  A    between atoms: _101  and  _102
REMARK   45  A    between atoms: _107  and  _108
REMARK   46  A    between atoms: _110  and  _112
REMARK   47  A    between atoms: _112  and  _113
REMARK   48  A    between atoms: _112  and  _115
REMARK   49  A    between atoms: _115  and  _116
REMARK   50  A    between atoms: _119  and  _121
REMARK   51  A    between atoms: _121  and  _122
REMARK   52  A    between atoms: _121  and  _124
REMARK   53  A    between atoms: _124  and  _125
REMARK   54  A    between atoms: _128  and  _130
REMARK   55  A    between atoms: _130  and  _131
REMARK   56  A    between atoms: _130  and  _133
REMARK   57  A    between atoms: _136  and  _138
REMARK   58  A    between atoms: _138  and  _139
REMARK   59  A    between atoms: _138  and  _141
REMARK   60  A    between atoms: _141  and  _142
REMARK   61  A    between atoms: _142  and  _143
REMARK   62  A    between atoms: _143  and  _144
REMARK   63  A    between atoms: _153  and  _155
REMARK   64  A    between atoms: _155  and  _156
REMARK   65  A    between atoms: _155  and  _158
REMARK   66  A    between atoms: _158  and  _159
REMARK   67  A    between atoms: _162  and  _164
REMARK   68  A    between atoms: _164  and  _165
REMARK   69  A    between atoms: _164  and  _167
REMARK   70  A    between atoms: _167  and  _168
REMARK   71  A    between atoms: _173  and  _175
REMARK   72  A    between atoms: _175  and  _176
REMARK   73  A    between atoms: _175  and  _178
REMARK   74  A    between atoms: _178  and  _179
REMARK   75  A    between atoms: _179  and  _180
REMARK   76  A    between atoms: _183  and  _185
REMARK   77  A    between atoms: _185  and  _186
REMARK   78  A    between atoms: _185  and  _188
REMARK   79  A    between atoms: _188  and  _189
REMARK   80  A    between atoms: _189  and  _190
REMARK   81  A    between atoms: _190  and  _191
REMARK   82  A    between atoms: _191  and  _192
REMARK   83  A    between atoms: _196  and  _198
REMARK   84  A    between atoms: _198  and  _199
REMARK   85  A    between atoms: _201  and  _203
REMARK   86  A    between atoms: _203  and  _204
REMARK   87  A    between atoms: _203  and  _206
REMARK   88  A    between atoms: _209  and  _211
REMARK   89  A    between atoms: _211  and  _212
REMARK   90  A    between atoms: _211  and  _214
REMARK   91  A    between atoms: _214  and  _215
REMARK   92  A    between atoms: _217  and  _219
REMARK   93  A    between atoms: _219  and  _220
REMARK   94  A    between atoms: _219  and  _222
REMARK   95  A    between atoms: _222  and  _223
REMARK   96  A    between atoms: _225  and  _227
REMARK   97  A    between atoms: _227  and  _228
REMARK   98  A    between atoms: _227  and  _230
REMARK   99  A    between atoms: _230  and  _231
REMARK  100  A    between atoms: _237  and  _239
REMARK  101  A    between atoms: _239  and  _240
REMARK  102  A    between atoms: _239  and  _242
REMARK  103  A    between atoms: _242  and  _243
REMARK  104  A    between atoms: _246  and  _248
REMARK  105  A    between atoms: _248  and  _249
REMARK  106  A    between atoms: _248  and  _251
REMARK  107  A    between atoms: _251  and  _252
REMARK  108  A    between atoms: _255  and  _257
REMARK  109  A    between atoms: _257  and  _258
REMARK  110  A    between atoms: _257  and  _260
REMARK  111  A    between atoms: _260  and  _261
REMARK  112  A    between atoms: _264  and  _266
REMARK  113  A    between atoms: _266  and  _267
REMARK  114  A    between atoms: _266  and  _269
REMARK  115  A    between atoms: _269  and  _270
REMARK  116  A    between atoms: _270  and  _271
REMARK  117  A    between atoms: _273  and  _275
REMARK  118  A    between atoms: _275  and  _276
REMARK  119  A    between atoms: _275  and  _278
REMARK  120  A    between atoms: _278  and  _279
REMARK  121  A    between atoms: _285  and  _287
REMARK  122  A    between atoms: _287  and  _288
REMARK  123  A    between atoms: _287  and  _290
REMARK  124  A    between atoms: _292  and  _294
REMARK  125  A    between atoms: _294  and  _295
REMARK  126  A    between atoms: _298  and  _300
REMARK  127  A    between atoms: _300  and  _301
REMARK  128  A    between atoms: _303  and  _305
REMARK  129  A    between atoms: _305  and  _306
REMARK  130  A    between atoms: _305  and  _308
REMARK  131  A    between atoms: _308  and  _309
REMARK  132  A    between atoms: _309  and  _310
REMARK  133  A    between atoms: _313  and  _315
REMARK  134  A    between atoms: _315  and  _316
REMARK  135  A    between atoms: _315  and  _318
REMARK  136  A    between atoms: _318  and  _319
REMARK  137  A    between atoms: _322  and  _324
REMARK  138  A    between atoms: _324  and  _325
REMARK  139  A    between atoms: _328  and  _330
REMARK  140  A    between atoms: _330  and  _331
REMARK  141  A    between atoms: _330  and  _333
REMARK  142  A    between atoms: _333  and  _334
REMARK  143  A    between atoms: _334  and  _457
REMARK  144  A    between atoms: _335  and  _337
REMARK  145  A    between atoms: _337  and  _338
REMARK  146  A    between atoms: _337  and  _340
REMARK  147  A    between atoms: _340  and  _341
REMARK  148  A    between atoms: _341  and  _342
REMARK  149  A    between atoms: _347  and  _349
REMARK  150  A    between atoms: _349  and  _350
REMARK  151  A    between atoms: _352  and  _354
REMARK  152  A    between atoms: _354  and  _355
REMARK  153  A    between atoms: _354  and  _357
REMARK  154  A    between atoms: _357  and  _358
REMARK  155  A    between atoms: _361  and  _363
REMARK  156  A    between atoms: _363  and  _364
REMARK  157  A    between atoms: _363  and  _366
REMARK  158  A    between atoms: _366  and  _367
REMARK  159  A    between atoms: _369  and  _371
REMARK  160  A    between atoms: _371  and  _372
REMARK  161  A    between atoms: _374  and  _376
REMARK  162  A    between atoms: _376  and  _377
REMARK  163  A    between atoms: _379  and  _381
REMARK  164  A    between atoms: _381  and  _382
REMARK  165  A    between atoms: _381  and  _384
REMARK  166  A    between atoms: _384  and  _385
REMARK  167  A    between atoms: _390  and  _392
REMARK  168  A    between atoms: _392  and  _393
REMARK  169  A    between atoms: _392  and  _395
REMARK  170  A    between atoms: _395  and  _396
REMARK  171  A    between atoms: _399  and  _401
REMARK  172  A    between atoms: _401  and  _402
REMARK  173  A    between atoms: _401  and  _404
REMARK  174  A    between atoms: _407  and  _409
REMARK  175  A    between atoms: _409  and  _410
REMARK  176  A    between atoms: _409  and  _412
REMARK  177  A    between atoms: _412  and  _413
REMARK  178  A    between atoms: _415  and  _417
REMARK  179  A    between atoms: _417  and  _418
REMARK  180  A    between atoms: _417  and  _420
REMARK  181  A    between atoms: _420  and  _421
REMARK  182  A    between atoms: _431  and  _433
REMARK  183  A    between atoms: _433  and  _434
REMARK  184  A    between atoms: _436  and  _438
REMARK  185  A    between atoms: _438  and  _439
REMARK  186  A    between atoms: _438  and  _441
REMARK  187  A    between atoms: _441  and  _442
REMARK  188  A    between atoms: _442  and  _443
REMARK  189  A    between atoms: _446  and  _448
REMARK  190  A    between atoms: _448  and  _449
REMARK  191  A    between atoms: _451  and  _453
REMARK  192  A    between atoms: _453  and  _454
REMARK  193  A    between atoms: _453  and  _456
REMARK  194  A    between atoms: _456  and  _457
REMARK  195  A    between atoms: _458  and  _460
REMARK  196  A    between atoms: _460  and  _461
REMARK  197  A    between atoms: _464  and  _466
REMARK  198  A    between atoms: _466  and  _467
REMARK  199  A    between atoms: _466  and  _469
REMARK  200  A    between atoms: _469  and  _470
REMARK  201  A    between atoms: _470  and  _471
REMARK  202  A    between atoms: _471  and  _472
REMARK  203  A    between atoms: _481  and  _483
REMARK  204  A    between atoms: _483  and  _484
REMARK  205  A    between atoms: _483  and  _486
REMARK  206  A    between atoms: _486  and  _487
REMARK  207  A    between atoms: _487  and  _488
REMARK  208  A    between atoms: _488  and  _489
REMARK  209  A    between atoms: _489  and  _490
REMARK  210  A    between atoms: _494  and  _496
REMARK  211  A    between atoms: _496  and  _497
REMARK  212  A    between atoms: _496  and  _499
REMARK  213  A    between atoms: _499  and  _500
REMARK  214  A    between atoms: _505  and  _506
REMARK  215  A    between atoms: _508  and  _510
REMARK  216  A    between atoms: _510  and  _511
REMARK  217  A    between atoms: _513  and  _515
REMARK  218  A    between atoms: _515  and  _516
REMARK  219  A    between atoms: _515  and  _518
REMARK  220  A    between atoms: _518  and  _519
REMARK  221  A    between atoms: _522  and  _524
REMARK  222  A    between atoms: _524  and  _525
REMARK  223  A    between atoms: _524  and  _527
REMARK  224  A    between atoms: _527  and  _528
REMARK  225  A    between atoms: _533  and  _534
REMARK  226  A    between atoms: _536  and  _538
REMARK  227  A    between atoms: _538  and  _539
REMARK  228  A    between atoms: _538  and  _541
REMARK  229  A    between atoms: _541  and  _542
REMARK                            x       y       z     vdW  Elec       q    Type
REMARK                         _______ _______ _______ _____ _____    ______ ____
ROOT
ATOM      1  O   HOH     1      12.428  73.521  10.521  0.00  0.00    +0.000 OA
ENDROOT
TORSDOF 0
REMARK  Name = ../refined-set-2016/2xbw/2xbw_pocket.pdb
REMARK  229 active torsions:
REMARK  status: ('A' for Active; 'I' for Inactive)
REMARK    1  A    between atoms: _1  and  _5
REMARK    2  A    between atoms: _5  and  _6
REMARK    3  A    between atoms: _5  and  _8
REMARK    4  A    between atoms: _8  and  _9
REMARK    5  A    between atoms: _12  and  _14
REMARK    6  A    between atoms: _14  and  _15
REMARK    7  A    between atoms: _14  and  _17
REMARK    8  A    between atoms: _20  and  _22
REMARK    9  A    between atoms: _22  and  _23
REMARK   10  A    between atoms: _22  and  _25
REMARK   11  A    between atoms: _25  and  _26
REMARK   12  A    between atoms: _31  and  _33
REMARK   13  A    between atoms: _33  and  _34
REMARK   14  A    between atoms: _33  and  _36
REMARK   15  A    between atoms: _36  and  _37
REMARK   16  A    between atoms: _37  and  _38
REMARK   17  A    between atoms: _43  and  _45
REMARK   18  A    between atoms: _45  and  _46
REMARK   19  A    between atoms: _45  and  _48
REMARK   20  A    between atoms: _48  and  _49
REMARK   21  A    between atoms: _55  and  _57
REMARK   22  A    between atoms: _57  and  _58
REMARK   23  A    between atoms: _57  and  _60
REMARK   24  A    between atoms: _60  and  _61
REMARK   25  A    between atoms: _64  and  _66
REMARK   26  A    between atoms: _66  and  _67
REMARK   27  A    between atoms: _66  and  _69
REMARK   28  A    between atoms: _69  and  _70
REMARK   29  A    between atoms: _70  and  _71
REMARK   30  A    between atoms: _71  and  _72
REMARK   31  A    between atoms: _72  and  _73
REMARK   32  A    between atoms: _77  and  _79
REMARK   33  A    between atoms: _79  and  _80
REMARK   34  A    between atoms: _79  and  _82
REMARK   35  A    between atoms: _82  and  _83
REMARK   36  A    between atoms: _83  and  _84
REMARK   37  A    between atoms: _87  and  _89
REMARK   38  A    between atoms: _89  and  _90
REMARK   39  A    between atoms: _89  and  _92
REMARK   40  A    between atoms: _92  and  _93
REMARK   41  A    between atoms: _96  and  _98
REMARK   42  A    between atoms: _98  and  _99
REMARK   43  A    between atoms: _98  and  _101
REMARK   44  A    between atoms: _101  and  _102
REMARK   45  A    between atoms: _107  and  _108
REMARK   46  A    between atoms: _110  and  _112
REMARK   47  A    between atoms: _112  and  _113
REMARK   48  A    between atoms: _112  and  _115
REMARK   49  A    between atoms: _115  and  _116
REMARK   50  A    between atoms: _119  and  _121
REMARK   51  A    between atoms: _121  and  _122
REMARK   52  A    between atoms: _121  and  _124
REMARK   53  A    between atoms: _124  and  _125
REMARK   54  A    between atoms: _128  and  _130
REMARK   55  A    between atoms: _130  and  _131
REMARK   56  A    between atoms: _130  and  _133
REMARK   57  A    between atoms: _136  and  _138
REMARK   58  A    between atoms: _138  and  _139
REMARK   59  A    between atoms: _138  and  _141
REMARK   60  A    between atoms: _141  and  _142
REMARK   61  A    between atoms: _142  and  _143
REMARK   62  A    between atoms: _143  and  _144
REMARK   63  A    between atoms: _153  and  _155
REMARK   64  A    between atoms: _155  and  _156
REMARK   65  A    between atoms: _155  and  _158
REMARK   66  A    between atoms: _158  and  _159
REMARK   67  A    between atoms: _162  and  _164
REMARK   68  A    between atoms: _164  and  _165
REMARK   69  A    between atoms: _164  and  _167
REMARK   70  A    between atoms: _167  and  _168
REMARK   71  A    between atoms: _173  and  _175
REMARK   72  A    between atoms: _175  and  _176
REMARK   73  A    between atoms: _175  and  _178
REMARK   74  A    between atoms: _178  and  _179
REMARK   75  A    between atoms: _179  and  _180
REMARK   76  A    between atoms: _183  and  _185
REMARK   77  A    between atoms: _185  and  _186
REMARK   78  A    between atoms: _185  and  _188
REMARK   79  A    between atoms: _188  and  _189
REMARK   80  A    between atoms: _189  and  _190
REMARK   81  A    between atoms: _190  and  _191
REMARK   82  A    between atoms: _191  and  _192
REMARK   83  A    between atoms: _196  and  _198
REMARK   84  A    between atoms: _198  and  _199
REMARK   85  A    between atoms: _201  and  _203
REMARK   86  A    between atoms: _203  and  _204
REMARK   87  A    between atoms: _203  and  _206
REMARK   88  A    between atoms: _209  and  _211
REMARK   89  A    between atoms: _211  and  _212
REMARK   90  A    between atoms: _211  and  _214
REMARK   91  A    between atoms: _214  and  _215
REMARK   92  A    between atoms: _217  and  _219
REMARK   93  A    between atoms: _219  and  _220
REMARK   94  A    between atoms: _219  and  _222
REMARK   95  A    between atoms: _222  and  _223
REMARK   96  A    between atoms: _225  and  _227
REMARK   97  A    between atoms: _227  and  _228
REMARK   98  A    between atoms: _227  and  _230
REMARK   99  A    between atoms: _230  and  _231
REMARK  100  A    between atoms: _237  and  _239
REMARK  101  A    between atoms: _239  and  _240
REMARK  102  A    between atoms: _239  and  _242
REMARK  103  A    between atoms: _242  and  _243
REMARK  104  A    between atoms: _246  and  _248
REMARK  105  A    between atoms: _248  and  _249
REMARK  106  A    between atoms: _248  and  _251
REMARK  107  A    between atoms: _251  and  _252
REMARK  108  A    between atoms: _255  and  _257
REMARK  109  A    between atoms: _257  and  _258
REMARK  110  A    between atoms: _257  and  _260
REMARK  111  A    between atoms: _260  and  _261
REMARK  112  A    between atoms: _264  and  _266
REMARK  113  A    between atoms: _266  and  _267
REMARK  114  A    between atoms: _266  and  _269
REMARK  115  A    between atoms: _269  and  _270
REMARK  116  A    between atoms: _270  and  _271
REMARK  117  A    between atoms: _273  and  _275
REMARK  118  A    between atoms: _275  and  _276
REMARK  119  A    between atoms: _275  and  _278
REMARK  120  A    between atoms: _278  and  _279
REMARK  121  A    between atoms: _285  and  _287
REMARK  122  A    between atoms: _287  and  _288
REMARK  123  A    between atoms: _287  and  _290
REMARK  124  A    between atoms: _292  and  _294
REMARK  125  A    between atoms: _294  and  _295
REMARK  126  A    between atoms: _298  and  _300
REMARK  127  A    between atoms: _300  and  _301
REMARK  128  A    between atoms: _303  and  _305
REMARK  129  A    between atoms: _305  and  _306
REMARK  130  A    between atoms: _305  and  _308
REMARK  131  A    between atoms: _308  and  _309
REMARK  132  A    between atoms: _309  and  _310
REMARK  133  A    between atoms: _313  and  _315
REMARK  134  A    between atoms: _315  and  _316
REMARK  135  A    between atoms: _315  and  _318
REMARK  136  A    between atoms: _318  and  _319
REMARK  137  A    between atoms: _322  and  _324
REMARK  138  A    between atoms: _324  and  _325
REMARK  139  A    between atoms: _328  and  _330
REMARK  140  A    between atoms: _330  and  _331
REMARK  141  A    between atoms: _330  and  _333
REMARK  142  A    between atoms: _333  and  _334
REMARK  143  A    between atoms: _334  and  _457
REMARK  144  A    between atoms: _335  and  _337
REMARK  145  A    between atoms: _337  and  _338
REMARK  146  A    between atoms: _337  and  _340
REMARK  147  A    between atoms: _340  and  _341
REMARK  148  A    between atoms: _341  and  _342
REMARK  149  A    between atoms: _347  and  _349
REMARK  150  A    between atoms: _349  and  _350
REMARK  151  A    between atoms: _352  and  _354
REMARK  152  A    between atoms: _354  and  _355
REMARK  153  A    between atoms: _354  and  _357
REMARK  154  A    between atoms: _357  and  _358
REMARK  155  A    between atoms: _361  and  _363
REMARK  156  A    between atoms: _363  and  _364
REMARK  157  A    between atoms: _363  and  _366
REMARK  158  A    between atoms: _366  and  _367
REMARK  159  A    between atoms: _369  and  _371
REMARK  160  A    between atoms: _371  and  _372
REMARK  161  A    between atoms: _374  and  _376
REMARK  162  A    between atoms: _376  and  _377
REMARK  163  A    between atoms: _379  and  _381
REMARK  164  A    between atoms: _381  and  _382
REMARK  165  A    between atoms: _381  and  _384
REMARK  166  A    between atoms: _384  and  _385
REMARK  167  A    between atoms: _390  and  _392
REMARK  168  A    between atoms: _392  and  _393
REMARK  169  A    between atoms: _392  and  _395
REMARK  170  A    between atoms: _395  and  _396
REMARK  171  A    between atoms: _399  and  _401
REMARK  172  A    between atoms: _401  and  _402
REMARK  173  A    between atoms: _401  and  _404
REMARK  174  A    between atoms: _407  and  _409
REMARK  175  A    between atoms: _409  and  _410
REMARK  176  A    between atoms: _409  and  _412
REMARK  177  A    between atoms: _412  and  _413
REMARK  178  A    between atoms: _415  and  _417
REMARK  179  A    between atoms: _417  and  _418
REMARK  180  A    between atoms: _417  and  _420
REMARK  181  A    between atoms: _420  and  _421
REMARK  182  A    between atoms: _431  and  _433
REMARK  183  A    between atoms: _433  and  _434
REMARK  184  A    between atoms: _436  and  _438
REMARK  185  A    between atoms: _438  and  _439
REMARK  186  A    between atoms: _438  and  _441
REMARK  187  A    between atoms: _441  and  _442
REMARK  188  A    between atoms: _442  and  _443
REMARK  189  A    between atoms: _446  and  _448
REMARK  190  A    between atoms: _448  and  _449
REMARK  191  A    between atoms: _451  and  _453
REMARK  192  A    between atoms: _453  and  _454
REMARK  193  A    between atoms: _453  and  _456
REMARK  194  A    between atoms: _456  and  _457
REMARK  195  A    between atoms: _458  and  _460
REMARK  196  A    between atoms: _460  and  _461
REMARK  197  A    between atoms: _464  and  _466
REMARK  198  A    between atoms: _466  and  _467
REMARK  199  A    between atoms: _466  and  _469
REMARK  200  A    between atoms: _469  and  _470
REMARK  201  A    between atoms: _470  and  _471
REMARK  202  A    between atoms: _471  and  _472
REMARK  203  A    between atoms: _481  and  _483
REMARK  204  A    between atoms: _483  and  _484
REMARK  205  A    between atoms: _483  and  _486
REMARK  206  A    between atoms: _486  and  _487
REMARK  207  A    between atoms: _487  and  _488
REMARK  208  A    between atoms: _488  and  _489
REMARK  209  A    between atoms: _489  and  _490
REMARK  210  A    between atoms: _494  and  _496
REMARK  211  A    between atoms: _496  and  _497
REMARK  212  A    between atoms: _496  and  _499
REMARK  213  A    between atoms: _499  and  _500
REMARK  214  A    between atoms: _505  and  _506
REMARK  215  A    between atoms: _508  and  _510
REMARK  216  A    between atoms: _510  and  _511
REMARK  217  A    between atoms: _513  and  _515
REMARK  218  A    between atoms: _515  and  _516
REMARK  219  A    between atoms: _515  and  _518
REMARK  220  A    between atoms: _518  and  _519
REMARK  221  A    between atoms: _522  and  _524
REMARK  222  A    between atoms: _524  and  _525
REMARK  223  A    between atoms: _524  and  _527
REMARK  224  A    between atoms: _527  and  _528
REMARK  225  A    between atoms: _533  and  _534
REMARK  226  A    between atoms: _536  and  _538
REMARK  227  A    between atoms: _538  and  _539
REMARK  228  A    between atoms: _538  and  _541
REMARK  229  A    between atoms: _541  and  _542
REMARK                            x       y       z     vdW  Elec       q    Type
REMARK                         _______ _______ _______ _____ _____    ______ ____
ROOT
ATOM      1  O   HOH     1      14.549  70.777  -2.482  0.00  0.00    +0.000 OA
ENDROOT
TORSDOF 0
REMARK  Name = ../refined-set-2016/2xbw/2xbw_pocket.pdb
REMARK  229 active torsions:
REMARK  status: ('A' for Active; 'I' for Inactive)
REMARK    1  A    between atoms: _1  and  _5
REMARK    2  A    between atoms: _5  and  _6
REMARK    3  A    between atoms: _5  and  _8
REMARK    4  A    between atoms: _8  and  _9
REMARK    5  A    between atoms: _12  and  _14
REMARK    6  A    between atoms: _14  and  _15
REMARK    7  A    between atoms: _14  and  _17
REMARK    8  A    between atoms: _20  and  _22
REMARK    9  A    between atoms: _22  and  _23
REMARK   10  A    between atoms: _22  and  _25
REMARK   11  A    between atoms: _25  and  _26
REMARK   12  A    between atoms: _31  and  _33
REMARK   13  A    between atoms: _33  and  _34
REMARK   14  A    between atoms: _33  and  _36
REMARK   15  A    between atoms: _36  and  _37
REMARK   16  A    between atoms: _37  and  _38
REMARK   17  A    between atoms: _43  and  _45
REMARK   18  A    between atoms: _45  and  _46
REMARK   19  A    between atoms: _45  and  _48
REMARK   20  A    between atoms: _48  and  _49
REMARK   21  A    between atoms: _55  and  _57
REMARK   22  A    between atoms: _57  and  _58
REMARK   23  A    between atoms: _57  and  _60
REMARK   24  A    between atoms: _60  and  _61
REMARK   25  A    between atoms: _64  and  _66
REMARK   26  A    between atoms: _66  and  _67
REMARK   27  A    between atoms: _66  and  _69
REMARK   28  A    between atoms: _69  and  _70
REMARK   29  A    between atoms: _70  and  _71
REMARK   30  A    between atoms: _71  and  _72
REMARK   31  A    between atoms: _72  and  _73
REMARK   32  A    between atoms: _77  and  _79
REMARK   33  A    between atoms: _79  and  _80
REMARK   34  A    between atoms: _79  and  _82
REMARK   35  A    between atoms: _82  and  _83
REMARK   36  A    between atoms: _83  and  _84
REMARK   37  A    between atoms: _87  and  _89
REMARK   38  A    between atoms: _89  and  _90
REMARK   39  A    between atoms: _89  and  _92
REMARK   40  A    between atoms: _92  and  _93
REMARK   41  A    between atoms: _96  and  _98
REMARK   42  A    between atoms: _98  and  _99
REMARK   43  A    between atoms: _98  and  _101
REMARK   44  A    between atoms: _101  and  _102
REMARK   45  A    between atoms: _107  and  _108
REMARK   46  A    between atoms: _110  and  _112
REMARK   47  A    between atoms: _112  and  _113
REMARK   48  A    between atoms: _112  and  _115
REMARK   49  A    between atoms: _115  and  _116
REMARK   50  A    between atoms: _119  and  _121
REMARK   51  A    between atoms: _121  and  _122
REMARK   52  A    between atoms: _121  and  _124
REMARK   53  A    between atoms: _124  and  _125
REMARK   54  A    between atoms: _128  and  _130
REMARK   55  A    between atoms: _130  and  _131
REMARK   56  A    between atoms: _130  and  _133
REMARK   57  A    between atoms: _136  and  _138
REMARK   58  A    between atoms: _138  and  _139
REMARK   59  A    between atoms: _138  and  _141
REMARK   60  A    between atoms: _141  and  _142
REMARK   61  A    between atoms: _142  and  _143
REMARK   62  A    between atoms: _143  and  _144
REMARK   63  A    between atoms: _153  and  _155
REMARK   64  A    between atoms: _155  and  _156
REMARK   65  A    between atoms: _155  and  _158
REMARK   66  A    between atoms: _158  and  _159
REMARK   67  A    between atoms: _162  and  _164
REMARK   68  A    between atoms: _164  and  _165
REMARK   69  A    between atoms: _164  and  _167
REMARK   70  A    between atoms: _167  and  _168
REMARK   71  A    between atoms: _173  and  _175
REMARK   72  A    between atoms: _175  and  _176
REMARK   73  A    between atoms: _175  and  _178
REMARK   74  A    between atoms: _178  and  _179
REMARK   75  A    between atoms: _179  and  _180
REMARK   76  A    between atoms: _183  and  _185
REMARK   77  A    between atoms: _185  and  _186
REMARK   78  A    between atoms: _185  and  _188
REMARK   79  A    between atoms: _188  and  _189
REMARK   80  A    between atoms: _189  and  _190
REMARK   81  A    between atoms: _190  and  _191
REMARK   82  A    between atoms: _191  and  _192
REMARK   83  A    between atoms: _196  and  _198
REMARK   84  A    between atoms: _198  and  _199
REMARK   85  A    between atoms: _201  and  _203
REMARK   86  A    between atoms: _203  and  _204
REMARK   87  A    between atoms: _203  and  _206
REMARK   88  A    between atoms: _209  and  _211
REMARK   89  A    between atoms: _211  and  _212
REMARK   90  A    between atoms: _211  and  _214
REMARK   91  A    between atoms: _214  and  _215
REMARK   92  A    between atoms: _217  and  _219
REMARK   93  A    between atoms: _219  and  _220
REMARK   94  A    between atoms: _219  and  _222
REMARK   95  A    between atoms: _222  and  _223
REMARK   96  A    between atoms: _225  and  _227
REMARK   97  A    between atoms: _227  and  _228
REMARK   98  A    between atoms: _227  and  _230
REMARK   99  A    between atoms: _230  and  _231
REMARK  100  A    between atoms: _237  and  _239
REMARK  101  A    between atoms: _239  and  _240
REMARK  102  A    between atoms: _239  and  _242
REMARK  103  A    between atoms: _242  and  _243
REMARK  104  A    between atoms: _246  and  _248
REMARK  105  A    between atoms: _248  and  _249
REMARK  106  A    between atoms: _248  and  _251
REMARK  107  A    between atoms: _251  and  _252
REMARK  108  A    between atoms: _255  and  _257
REMARK  109  A    between atoms: _257  and  _258
REMARK  110  A    between atoms: _257  and  _260
REMARK  111  A    between atoms: _260  and  _261
REMARK  112  A    between atoms: _264  and  _266
REMARK  113  A    between atoms: _266  and  _267
REMARK  114  A    between atoms: _266  and  _269
REMARK  115  A    between atoms: _269  and  _270
REMARK  116  A    between atoms: _270  and  _271
REMARK  117  A    between atoms: _273  and  _275
REMARK  118  A    between atoms: _275  and  _276
REMARK  119  A    between atoms: _275  and  _278
REMARK  120  A    between atoms: _278  and  _279
REMARK  121  A    between atoms: _285  and  _287
REMARK  122  A    between atoms: _287  and  _288
REMARK  123  A    between atoms: _287  and  _290
REMARK  124  A    between atoms: _292  and  _294
REMARK  125  A    between atoms: _294  and  _295
REMARK  126  A    between atoms: _298  and  _300
REMARK  127  A    between atoms: _300  and  _301
REMARK  128  A    between atoms: _303  and  _305
REMARK  129  A    between atoms: _305  and  _306
REMARK  130  A    between atoms: _305  and  _308
REMARK  131  A    between atoms: _308  and  _309
REMARK  132  A    between atoms: _309  and  _310
REMARK  133  A    between atoms: _313  and  _315
REMARK  134  A    between atoms: _315  and  _316
REMARK  135  A    between atoms: _315  and  _318
REMARK  136  A    between atoms: _318  and  _319
REMARK  137  A    between atoms: _322  and  _324
REMARK  138  A    between atoms: _324  and  _325
REMARK  139  A    between atoms: _328  and  _330
REMARK  140  A    between atoms: _330  and  _331
REMARK  141  A    between atoms: _330  and  _333
REMARK  142  A    between atoms: _333  and  _334
REMARK  143  A    between atoms: _334  and  _457
REMARK  144  A    between atoms: _335  and  _337
REMARK  145  A    between atoms: _337  and  _338
REMARK  146  A    between atoms: _337  and  _340
REMARK  147  A    between atoms: _340  and  _341
REMARK  148  A    between atoms: _341  and  _342
REMARK  149  A    between atoms: _347  and  _349
REMARK  150  A    between atoms: _349  and  _350
REMARK  151  A    between atoms: _352  and  _354
REMARK  152  A    between atoms: _354  and  _355
REMARK  153  A    between atoms: _354  and  _357
REMARK  154  A    between atoms: _357  and  _358
REMARK  155  A    between atoms: _361  and  _363
REMARK  156  A    between atoms: _363  and  _364
REMARK  157  A    between atoms: _363  and  _366
REMARK  158  A    between atoms: _366  and  _367
REMARK  159  A    between atoms: _369  and  _371
REMARK  160  A    between atoms: _371  and  _372
REMARK  161  A    between atoms: _374  and  _376
REMARK  162  A    between atoms: _376  and  _377
REMARK  163  A    between atoms: _379  and  _381
REMARK  164  A    between atoms: _381  and  _382
REMARK  165  A    between atoms: _381  and  _384
REMARK  166  A    between atoms: _384  and  _385
REMARK  167  A    between atoms: _390  and  _392
REMARK  168  A    between atoms: _392  and  _393
REMARK  169  A    between atoms: _392  and  _395
REMARK  170  A    between atoms: _395  and  _396
REMARK  171  A    between atoms: _399  and  _401
REMARK  172  A    between atoms: _401  and  _402
REMARK  173  A    between atoms: _401  and  _404
REMARK  174  A    between atoms: _407  and  _409
REMARK  175  A    between atoms: _409  and  _410
REMARK  176  A    between atoms: _409  and  _412
REMARK  177  A    between atoms: _412  and  _413
REMARK  178  A    between atoms: _415  and  _417
REMARK  179  A    between atoms: _417  and  _418
REMARK  180  A    between atoms: _417  and  _420
REMARK  181  A    between atoms: _420  and  _421
REMARK  182  A    between atoms: _431  and  _433
REMARK  183  A    between atoms: _433  and  _434
REMARK  184  A    between atoms: _436  and  _438
REMARK  185  A    between atoms: _438  and  _439
REMARK  186  A    between atoms: _438  and  _441
REMARK  187  A    between atoms: _441  and  _442
REMARK  188  A    between atoms: _442  and  _443
REMARK  189  A    between atoms: _446  and  _448
REMARK  190  A    between atoms: _448  and  _449
REMARK  191  A    between atoms: _451  and  _453
REMARK  192  A    between atoms: _453  and  _454
REMARK  193  A    between atoms: _453  and  _456
REMARK  194  A    between atoms: _456  and  _457
REMARK  195  A    between atoms: _458  and  _460
REMARK  196  A    between atoms: _460  and  _461
REMARK  197  A    between atoms: _464  and  _466
REMARK  198  A    between atoms: _466  and  _467
REMARK  199  A    between atoms: _466  and  _469
REMARK  200  A    between atoms: _469  and  _470
REMARK  201  A    between atoms: _470  and  _471
REMARK  202  A    between atoms: _471  and  _472
REMARK  203  A    between atoms: _481  and  _483
REMARK  204  A    between atoms: _483  and  _484
REMARK  205  A    between atoms: _483  and  _486
REMARK  206  A    between atoms: _486  and  _487
REMARK  207  A    between atoms: _487  and  _488
REMARK  208  A    between atoms: _488  and  _489
REMARK  209  A    between atoms: _489  and  _490
REMARK  210  A    between atoms: _494  and  _496
REMARK  211  A    between atoms: _496  and  _497
REMARK  212  A    between atoms: _496  and  _499
REMARK  213  A    between atoms: _499  and  _500
REMARK  214  A    between atoms: _505  and  _506
REMARK  215  A    between atoms: _508  and  _510
REMARK  216  A    between atoms: _510  and  _511
REMARK  217  A    between atoms: _513  and  _515
REMARK  218  A    between atoms: _515  and  _516
REMARK  219  A    between atoms: _515  and  _518
REMARK  220  A    between atoms: _518  and  _519
REMARK  221  A    between atoms: _522  and  _524
REMARK  222  A    between atoms: _524  and  _525
REMARK  223  A    between atoms: _524  and  _527
REMARK  224  A    between atoms: _527  and  _528
REMARK  225  A    between atoms: _533  and  _534
REMARK  226  A    between atoms: _536  and  _538
REMARK  227  A    between atoms: _538  and  _539
REMARK  228  A    between atoms: _538  and  _541
REMARK  229  A    between atoms: _541  and  _542
REMARK                            x       y       z     vdW  Elec       q    Type
REMARK                         _______ _______ _______ _____ _____    ______ ____
ROOT
ATOM      1  O   HOH     1       1.170  53.931   9.513  0.00  0.00    +0.000 OA
ENDROOT
TORSDOF 0
REMARK  Name = ../refined-set-2016/2xbw/2xbw_pocket.pdb
REMARK  229 active torsions:
REMARK  status: ('A' for Active; 'I' for Inactive)
REMARK    1  A    between atoms: _1  and  _5
REMARK    2  A    between atoms: _5  and  _6
REMARK    3  A    between atoms: _5  and  _8
REMARK    4  A    between atoms: _8  and  _9
REMARK    5  A    between atoms: _12  and  _14
REMARK    6  A    between atoms: _14  and  _15
REMARK    7  A    between atoms: _14  and  _17
REMARK    8  A    between atoms: _20  and  _22
REMARK    9  A    between atoms: _22  and  _23
REMARK   10  A    between atoms: _22  and  _25
REMARK   11  A    between atoms: _25  and  _26
REMARK   12  A    between atoms: _31  and  _33
REMARK   13  A    between atoms: _33  and  _34
REMARK   14  A    between atoms: _33  and  _36
REMARK   15  A    between atoms: _36  and  _37
REMARK   16  A    between atoms: _37  and  _38
REMARK   17  A    between atoms: _43  and  _45
REMARK   18  A    between atoms: _45  and  _46
REMARK   19  A    between atoms: _45  and  _48
REMARK   20  A    between atoms: _48  and  _49
REMARK   21  A    between atoms: _55  and  _57
REMARK   22  A    between atoms: _57  and  _58
REMARK   23  A    between atoms: _57  and  _60
REMARK   24  A    between atoms: _60  and  _61
REMARK   25  A    between atoms: _64  and  _66
REMARK   26  A    between atoms: _66  and  _67
REMARK   27  A    between atoms: _66  and  _69
REMARK   28  A    between atoms: _69  and  _70
REMARK   29  A    between atoms: _70  and  _71
REMARK   30  A    between atoms: _71  and  _72
REMARK   31  A    between atoms: _72  and  _73
REMARK   32  A    between atoms: _77  and  _79
REMARK   33  A    between atoms: _79  and  _80
REMARK   34  A    between atoms: _79  and  _82
REMARK   35  A    between atoms: _82  and  _83
REMARK   36  A    between atoms: _83  and  _84
REMARK   37  A    between atoms: _87  and  _89
REMARK   38  A    between atoms: _89  and  _90
REMARK   39  A    between atoms: _89  and  _92
REMARK   40  A    between atoms: _92  and  _93
REMARK   41  A    between atoms: _96  and  _98
REMARK   42  A    between atoms: _98  and  _99
REMARK   43  A    between atoms: _98  and  _101
REMARK   44  A    between atoms: _101  and  _102
REMARK   45  A    between atoms: _107  and  _108
REMARK   46  A    between atoms: _110  and  _112
REMARK   47  A    between atoms: _112  and  _113
REMARK   48  A    between atoms: _112  and  _115
REMARK   49  A    between atoms: _115  and  _116
REMARK   50  A    between atoms: _119  and  _121
REMARK   51  A    between atoms: _121  and  _122
REMARK   52  A    between atoms: _121  and  _124
REMARK   53  A    between atoms: _124  and  _125
REMARK   54  A    between atoms: _128  and  _130
REMARK   55  A    between atoms: _130  and  _131
REMARK   56  A    between atoms: _130  and  _133
REMARK   57  A    between atoms: _136  and  _138
REMARK   58  A    between atoms: _138  and  _139
REMARK   59  A    between atoms: _138  and  _141
REMARK   60  A    between atoms: _141  and  _142
REMARK   61  A    between atoms: _142  and  _143
REMARK   62  A    between atoms: _143  and  _144
REMARK   63  A    between atoms: _153  and  _155
REMARK   64  A    between atoms: _155  and  _156
REMARK   65  A    between atoms: _155  and  _158
REMARK   66  A    between atoms: _158  and  _159
REMARK   67  A    between atoms: _162  and  _164
REMARK   68  A    between atoms: _164  and  _165
REMARK   69  A    between atoms: _164  and  _167
REMARK   70  A    between atoms: _167  and  _168
REMARK   71  A    between atoms: _173  and  _175
REMARK   72  A    between atoms: _175  and  _176
REMARK   73  A    between atoms: _175  and  _178
REMARK   74  A    between atoms: _178  and  _179
REMARK   75  A    between atoms: _179  and  _180
REMARK   76  A    between atoms: _183  and  _185
REMARK   77  A    between atoms: _185  and  _186
REMARK   78  A    between atoms: _185  and  _188
REMARK   79  A    between atoms: _188  and  _189
REMARK   80  A    between atoms: _189  and  _190
REMARK   81  A    between atoms: _190  and  _191
REMARK   82  A    between atoms: _191  and  _192
REMARK   83  A    between atoms: _196  and  _198
REMARK   84  A    between atoms: _198  and  _199
REMARK   85  A    between atoms: _201  and  _203
REMARK   86  A    between atoms: _203  and  _204
REMARK   87  A    between atoms: _203  and  _206
REMARK   88  A    between atoms: _209  and  _211
REMARK   89  A    between atoms: _211  and  _212
REMARK   90  A    between atoms: _211  and  _214
REMARK   91  A    between atoms: _214  and  _215
REMARK   92  A    between atoms: _217  and  _219
REMARK   93  A    between atoms: _219  and  _220
REMARK   94  A    between atoms: _219  and  _222
REMARK   95  A    between atoms: _222  and  _223
REMARK   96  A    between atoms: _225  and  _227
REMARK   97  A    between atoms: _227  and  _228
REMARK   98  A    between atoms: _227  and  _230
REMARK   99  A    between atoms: _230  and  _231
REMARK  100  A    between atoms: _237  and  _239
REMARK  101  A    between atoms: _239  and  _240
REMARK  102  A    between atoms: _239  and  _242
REMARK  103  A    between atoms: _242  and  _243
REMARK  104  A    between atoms: _246  and  _248
REMARK  105  A    between atoms: _248  and  _249
REMARK  106  A    between atoms: _248  and  _251
REMARK  107  A    between atoms: _251  and  _252
REMARK  108  A    between atoms: _255  and  _257
REMARK  109  A    between atoms: _257  and  _258
REMARK  110  A    between atoms: _257  and  _260
REMARK  111  A    between atoms: _260  and  _261
REMARK  112  A    between atoms: _264  and  _266
REMARK  113  A    between atoms: _266  and  _267
REMARK  114  A    between atoms: _266  and  _269
REMARK  115  A    between atoms: _269  and  _270
REMARK  116  A    between atoms: _270  and  _271
REMARK  117  A    between atoms: _273  and  _275
REMARK  118  A    between atoms: _275  and  _276
REMARK  119  A    between atoms: _275  and  _278
REMARK  120  A    between atoms: _278  and  _279
REMARK  121  A    between atoms: _285  and  _287
REMARK  122  A    between atoms: _287  and  _288
REMARK  123  A    between atoms: _287  and  _290
REMARK  124  A    between atoms: _292  and  _294
REMARK  125  A    between atoms: _294  and  _295
REMARK  126  A    between atoms: _298  and  _300
REMARK  127  A    between atoms: _300  and  _301
REMARK  128  A    between atoms: _303  and  _305
REMARK  129  A    between atoms: _305  and  _306
REMARK  130  A    between atoms: _305  and  _308
REMARK  131  A    between atoms: _308  and  _309
REMARK  132  A    between atoms: _309  and  _310
REMARK  133  A    between atoms: _313  and  _315
REMARK  134  A    between atoms: _315  and  _316
REMARK  135  A    between atoms: _315  and  _318
REMARK  136  A    between atoms: _318  and  _319
REMARK  137  A    between atoms: _322  and  _324
REMARK  138  A    between atoms: _324  and  _325
REMARK  139  A    between atoms: _328  and  _330
REMARK  140  A    between atoms: _330  and  _331
REMARK  141  A    between atoms: _330  and  _333
REMARK  142  A    between atoms: _333  and  _334
REMARK  143  A    between atoms: _334  and  _457
REMARK  144  A    between atoms: _335  and  _337
REMARK  145  A    between atoms: _337  and  _338
REMARK  146  A    between atoms: _337  and  _340
REMARK  147  A    between atoms: _340  and  _341
REMARK  148  A    between atoms: _341  and  _342
REMARK  149  A    between atoms: _347  and  _349
REMARK  150  A    between atoms: _349  and  _350
REMARK  151  A    between atoms: _352  and  _354
REMARK  152  A    between atoms: _354  and  _355
REMARK  153  A    between atoms: _354  and  _357
REMARK  154  A    between atoms: _357  and  _358
REMARK  155  A    between atoms: _361  and  _363
REMARK  156  A    between atoms: _363  and  _364
REMARK  157  A    between atoms: _363  and  _366
REMARK  158  A    between atoms: _366  and  _367
REMARK  159  A    between atoms: _369  and  _371
REMARK  160  A    between atoms: _371  and  _372
REMARK  161  A    between atoms: _374  and  _376
REMARK  162  A    between atoms: _376  and  _377
REMARK  163  A    between atoms: _379  and  _381
REMARK  164  A    between atoms: _381  and  _382
REMARK  165  A    between atoms: _381  and  _384
REMARK  166  A    between atoms: _384  and  _385
REMARK  167  A    between atoms: _390  and  _392
REMARK  168  A    between atoms: _392  and  _393
REMARK  169  A    between atoms: _392  and  _395
REMARK  170  A    between atoms: _395  and  _396
REMARK  171  A    between atoms: _399  and  _401
REMARK  172  A    between atoms: _401  and  _402
REMARK  173  A    between atoms: _401  and  _404
REMARK  174  A    between atoms: _407  and  _409
REMARK  175  A    between atoms: _409  and  _410
REMARK  176  A    between atoms: _409  and  _412
REMARK  177  A    between atoms: _412  and  _413
REMARK  178  A    between atoms: _415  and  _417
REMARK  179  A    between atoms: _417  and  _418
REMARK  180  A    between atoms: _417  and  _420
REMARK  181  A    between atoms: _420  and  _421
REMARK  182  A    between atoms: _431  and  _433
REMARK  183  A    between atoms: _433  and  _434
REMARK  184  A    between atoms: _436  and  _438
REMARK  185  A    between atoms: _438  and  _439
REMARK  186  A    between atoms: _438  and  _441
REMARK  187  A    between atoms: _441  and  _442
REMARK  188  A    between atoms: _442  and  _443
REMARK  189  A    between atoms: _446  and  _448
REMARK  190  A    between atoms: _448  and  _449
REMARK  191  A    between atoms: _451  and  _453
REMARK  192  A    between atoms: _453  and  _454
REMARK  193  A    between atoms: _453  and  _456
REMARK  194  A    between atoms: _456  and  _457
REMARK  195  A    between atoms: _458  and  _460
REMARK  196  A    between atoms: _460  and  _461
REMARK  197  A    between atoms: _464  and  _466
REMARK  198  A    between atoms: _466  and  _467
REMARK  199  A    between atoms: _466  and  _469
REMARK  200  A    between atoms: _469  and  _470
REMARK  201  A    between atoms: _470  and  _471
REMARK  202  A    between atoms: _471  and  _472
REMARK  203  A    between atoms: _481  and  _483
REMARK  204  A    between atoms: _483  and  _484
REMARK  205  A    between atoms: _483  and  _486
REMARK  206  A    between atoms: _486  and  _487
REMARK  207  A    between atoms: _487  and  _488
REMARK  208  A    between atoms: _488  and  _489
REMARK  209  A    between atoms: _489  and  _490
REMARK  210  A    between atoms: _494  and  _496
REMARK  211  A    between atoms: _496  and  _497
REMARK  212  A    between atoms: _496  and  _499
REMARK  213  A    between atoms: _499  and  _500
REMARK  214  A    between atoms: _505  and  _506
REMARK  215  A    between atoms: _508  and  _510
REMARK  216  A    between atoms: _510  and  _511
REMARK  217  A    between atoms: _513  and  _515
REMARK  218  A    between atoms: _515  and  _516
REMARK  219  A    between atoms: _515  and  _518
REMARK  220  A    between atoms: _518  and  _519
REMARK  221  A    between atoms: _522  and  _524
REMARK  222  A    between atoms: _524  and  _525
REMARK  223  A    between atoms: _524  and  _527
REMARK  224  A    between atoms: _527  and  _528
REMARK  225  A    between atoms: _533  and  _534
REMARK  226  A    between atoms: _536  and  _538
REMARK  227  A    between atoms: _538  and  _539
REMARK  228  A    between atoms: _538  and  _541
REMARK  229  A    between atoms: _541  and  _542
REMARK                            x       y       z     vdW  Elec       q    Type
REMARK                         _______ _______ _______ _____ _____    ______ ____
ROOT
ATOM      1  O   HOH     1       3.650  53.684   5.577  0.00  0.00    +0.000 OA
ENDROOT
TORSDOF 0
REMARK  Name = ../refined-set-2016/2xbw/2xbw_pocket.pdb
REMARK  229 active torsions:
REMARK  status: ('A' for Active; 'I' for Inactive)
REMARK    1  A    between atoms: _1  and  _5
REMARK    2  A    between atoms: _5  and  _6
REMARK    3  A    between atoms: _5  and  _8
REMARK    4  A    between atoms: _8  and  _9
REMARK    5  A    between atoms: _12  and  _14
REMARK    6  A    between atoms: _14  and  _15
REMARK    7  A    between atoms: _14  and  _17
REMARK    8  A    between atoms: _20  and  _22
REMARK    9  A    between atoms: _22  and  _23
REMARK   10  A    between atoms: _22  and  _25
REMARK   11  A    between atoms: _25  and  _26
REMARK   12  A    between atoms: _31  and  _33
REMARK   13  A    between atoms: _33  and  _34
REMARK   14  A    between atoms: _33  and  _36
REMARK   15  A    between atoms: _36  and  _37
REMARK   16  A    between atoms: _37  and  _38
REMARK   17  A    between atoms: _43  and  _45
REMARK   18  A    between atoms: _45  and  _46
REMARK   19  A    between atoms: _45  and  _48
REMARK   20  A    between atoms: _48  and  _49
REMARK   21  A    between atoms: _55  and  _57
REMARK   22  A    between atoms: _57  and  _58
REMARK   23  A    between atoms: _57  and  _60
REMARK   24  A    between atoms: _60  and  _61
REMARK   25  A    between atoms: _64  and  _66
REMARK   26  A    between atoms: _66  and  _67
REMARK   27  A    between atoms: _66  and  _69
REMARK   28  A    between atoms: _69  and  _70
REMARK   29  A    between atoms: _70  and  _71
REMARK   30  A    between atoms: _71  and  _72
REMARK   31  A    between atoms: _72  and  _73
REMARK   32  A    between atoms: _77  and  _79
REMARK   33  A    between atoms: _79  and  _80
REMARK   34  A    between atoms: _79  and  _82
REMARK   35  A    between atoms: _82  and  _83
REMARK   36  A    between atoms: _83  and  _84
REMARK   37  A    between atoms: _87  and  _89
REMARK   38  A    between atoms: _89  and  _90
REMARK   39  A    between atoms: _89  and  _92
REMARK   40  A    between atoms: _92  and  _93
REMARK   41  A    between atoms: _96  and  _98
REMARK   42  A    between atoms: _98  and  _99
REMARK   43  A    between atoms: _98  and  _101
REMARK   44  A    between atoms: _101  and  _102
REMARK   45  A    between atoms: _107  and  _108
REMARK   46  A    between atoms: _110  and  _112
REMARK   47  A    between atoms: _112  and  _113
REMARK   48  A    between atoms: _112  and  _115
REMARK   49  A    between atoms: _115  and  _116
REMARK   50  A    between atoms: _119  and  _121
REMARK   51  A    between atoms: _121  and  _122
REMARK   52  A    between atoms: _121  and  _124
REMARK   53  A    between atoms: _124  and  _125
REMARK   54  A    between atoms: _128  and  _130
REMARK   55  A    between atoms: _130  and  _131
REMARK   56  A    between atoms: _130  and  _133
REMARK   57  A    between atoms: _136  and  _138
REMARK   58  A    between atoms: _138  and  _139
REMARK   59  A    between atoms: _138  and  _141
REMARK   60  A    between atoms: _141  and  _142
REMARK   61  A    between atoms: _142  and  _143
REMARK   62  A    between atoms: _143  and  _144
REMARK   63  A    between atoms: _153  and  _155
REMARK   64  A    between atoms: _155  and  _156
REMARK   65  A    between atoms: _155  and  _158
REMARK   66  A    between atoms: _158  and  _159
REMARK   67  A    between atoms: _162  and  _164
REMARK   68  A    between atoms: _164  and  _165
REMARK   69  A    between atoms: _164  and  _167
REMARK   70  A    between atoms: _167  and  _168
REMARK   71  A    between atoms: _173  and  _175
REMARK   72  A    between atoms: _175  and  _176
REMARK   73  A    between atoms: _175  and  _178
REMARK   74  A    between atoms: _178  and  _179
REMARK   75  A    between atoms: _179  and  _180
REMARK   76  A    between atoms: _183  and  _185
REMARK   77  A    between atoms: _185  and  _186
REMARK   78  A    between atoms: _185  and  _188
REMARK   79  A    between atoms: _188  and  _189
REMARK   80  A    between atoms: _189  and  _190
REMARK   81  A    between atoms: _190  and  _191
REMARK   82  A    between atoms: _191  and  _192
REMARK   83  A    between atoms: _196  and  _198
REMARK   84  A    between atoms: _198  and  _199
REMARK   85  A    between atoms: _201  and  _203
REMARK   86  A    between atoms: _203  and  _204
REMARK   87  A    between atoms: _203  and  _206
REMARK   88  A    between atoms: _209  and  _211
REMARK   89  A    between atoms: _211  and  _212
REMARK   90  A    between atoms: _211  and  _214
REMARK   91  A    between atoms: _214  and  _215
REMARK   92  A    between atoms: _217  and  _219
REMARK   93  A    between atoms: _219  and  _220
REMARK   94  A    between atoms: _219  and  _222
REMARK   95  A    between atoms: _222  and  _223
REMARK   96  A    between atoms: _225  and  _227
REMARK   97  A    between atoms: _227  and  _228
REMARK   98  A    between atoms: _227  and  _230
REMARK   99  A    between atoms: _230  and  _231
REMARK  100  A    between atoms: _237  and  _239
REMARK  101  A    between atoms: _239  and  _240
REMARK  102  A    between atoms: _239  and  _242
REMARK  103  A    between atoms: _242  and  _243
REMARK  104  A    between atoms: _246  and  _248
REMARK  105  A    between atoms: _248  and  _249
REMARK  106  A    between atoms: _248  and  _251
REMARK  107  A    between atoms: _251  and  _252
REMARK  108  A    between atoms: _255  and  _257
REMARK  109  A    between atoms: _257  and  _258
REMARK  110  A    between atoms: _257  and  _260
REMARK  111  A    between atoms: _260  and  _261
REMARK  112  A    between atoms: _264  and  _266
REMARK  113  A    between atoms: _266  and  _267
REMARK  114  A    between atoms: _266  and  _269
REMARK  115  A    between atoms: _269  and  _270
REMARK  116  A    between atoms: _270  and  _271
REMARK  117  A    between atoms: _273  and  _275
REMARK  118  A    between atoms: _275  and  _276
REMARK  119  A    between atoms: _275  and  _278
REMARK  120  A    between atoms: _278  and  _279
REMARK  121  A    between atoms: _285  and  _287
REMARK  122  A    between atoms: _287  and  _288
REMARK  123  A    between atoms: _287  and  _290
REMARK  124  A    between atoms: _292  and  _294
REMARK  125  A    between atoms: _294  and  _295
REMARK  126  A    between atoms: _298  and  _300
REMARK  127  A    between atoms: _300  and  _301
REMARK  128  A    between atoms: _303  and  _305
REMARK  129  A    between atoms: _305  and  _306
REMARK  130  A    between atoms: _305  and  _308
REMARK  131  A    between atoms: _308  and  _309
REMARK  132  A    between atoms: _309  and  _310
REMARK  133  A    between atoms: _313  and  _315
REMARK  134  A    between atoms: _315  and  _316
REMARK  135  A    between atoms: _315  and  _318
REMARK  136  A    between atoms: _318  and  _319
REMARK  137  A    between atoms: _322  and  _324
REMARK  138  A    between atoms: _324  and  _325
REMARK  139  A    between atoms: _328  and  _330
REMARK  140  A    between atoms: _330  and  _331
REMARK  141  A    between atoms: _330  and  _333
REMARK  142  A    between atoms: _333  and  _334
REMARK  143  A    between atoms: _334  and  _457
REMARK  144  A    between atoms: _335  and  _337
REMARK  145  A    between atoms: _337  and  _338
REMARK  146  A    between atoms: _337  and  _340
REMARK  147  A    between atoms: _340  and  _341
REMARK  148  A    between atoms: _341  and  _342
REMARK  149  A    between atoms: _347  and  _349
REMARK  150  A    between atoms: _349  and  _350
REMARK  151  A    between atoms: _352  and  _354
REMARK  152  A    between atoms: _354  and  _355
REMARK  153  A    between atoms: _354  and  _357
REMARK  154  A    between atoms: _357  and  _358
REMARK  155  A    between atoms: _361  and  _363
REMARK  156  A    between atoms: _363  and  _364
REMARK  157  A    between atoms: _363  and  _366
REMARK  158  A    between atoms: _366  and  _367
REMARK  159  A    between atoms: _369  and  _371
REMARK  160  A    between atoms: _371  and  _372
REMARK  161  A    between atoms: _374  and  _376
REMARK  162  A    between atoms: _376  and  _377
REMARK  163  A    between atoms: _379  and  _381
REMARK  164  A    between atoms: _381  and  _382
REMARK  165  A    between atoms: _381  and  _384
REMARK  166  A    between atoms: _384  and  _385
REMARK  167  A    between atoms: _390  and  _392
REMARK  168  A    between atoms: _392  and  _393
REMARK  169  A    between atoms: _392  and  _395
REMARK  170  A    between atoms: _395  and  _396
REMARK  171  A    between atoms: _399  and  _401
REMARK  172  A    between atoms: _401  and  _402
REMARK  173  A    between atoms: _401  and  _404
REMARK  174  A    between atoms: _407  and  _409
REMARK  175  A    between atoms: _409  and  _410
REMARK  176  A    between atoms: _409  and  _412
REMARK  177  A    between atoms: _412  and  _413
REMARK  178  A    between atoms: _415  and  _417
REMARK  179  A    between atoms: _417  and  _418
REMARK  180  A    between atoms: _417  and  _420
REMARK  181  A    between atoms: _420  and  _421
REMARK  182  A    between atoms: _431  and  _433
REMARK  183  A    between atoms: _433  and  _434
REMARK  184  A    between atoms: _436  and  _438
REMARK  185  A    between atoms: _438  and  _439
REMARK  186  A    between atoms: _438  and  _441
REMARK  187  A    between atoms: _441  and  _442
REMARK  188  A    between atoms: _442  and  _443
REMARK  189  A    between atoms: _446  and  _448
REMARK  190  A    between atoms: _448  and  _449
REMARK  191  A    between atoms: _451  and  _453
REMARK  192  A    between atoms: _453  and  _454
REMARK  193  A    between atoms: _453  and  _456
REMARK  194  A    between atoms: _456  and  _457
REMARK  195  A    between atoms: _458  and  _460
REMARK  196  A    between atoms: _460  and  _461
REMARK  197  A    between atoms: _464  and  _466
REMARK  198  A    between atoms: _466  and  _467
REMARK  199  A    between atoms: _466  and  _469
REMARK  200  A    between atoms: _469  and  _470
REMARK  201  A    between atoms: _470  and  _471
REMARK  202  A    between atoms: _471  and  _472
REMARK  203  A    between atoms: _481  and  _483
REMARK  204  A    between atoms: _483  and  _484
REMARK  205  A    between atoms: _483  and  _486
REMARK  206  A    between atoms: _486  and  _487
REMARK  207  A    between atoms: _487  and  _488
REMARK  208  A    between atoms: _488  and  _489
REMARK  209  A    between atoms: _489  and  _490
REMARK  210  A    between atoms: _494  and  _496
REMARK  211  A    between atoms: _496  and  _497
REMARK  212  A    between atoms: _496  and  _499
REMARK  213  A    between atoms: _499  and  _500
REMARK  214  A    between atoms: _505  and  _506
REMARK  215  A    between atoms: _508  and  _510
REMARK  216  A    between atoms: _510  and  _511
REMARK  217  A    between atoms: _513  and  _515
REMARK  218  A    between atoms: _515  and  _516
REMARK  219  A    between atoms: _515  and  _518
REMARK  220  A    between atoms: _518  and  _519
REMARK  221  A    between atoms: _522  and  _524
REMARK  222  A    between atoms: _524  and  _525
REMARK  223  A    between atoms: _524  and  _527
REMARK  224  A    between atoms: _527  and  _528
REMARK  225  A    between atoms: _533  and  _534
REMARK  226  A    between atoms: _536  and  _538
REMARK  227  A    between atoms: _538  and  _539
REMARK  228  A    between atoms: _538  and  _541
REMARK  229  A    between atoms: _541  and  _542
REMARK                            x       y       z     vdW  Elec       q    Type
REMARK                         _______ _______ _______ _____ _____    ______ ____
ROOT
ATOM      1  O   HOH     1      16.397  65.910  14.392  0.00  0.00    +0.000 OA
ENDROOT
TORSDOF 0
REMARK  Name = ../refined-set-2016/2xbw/2xbw_pocket.pdb
REMARK  229 active torsions:
REMARK  status: ('A' for Active; 'I' for Inactive)
REMARK    1  A    between atoms: _1  and  _5
REMARK    2  A    between atoms: _5  and  _6
REMARK    3  A    between atoms: _5  and  _8
REMARK    4  A    between atoms: _8  and  _9
REMARK    5  A    between atoms: _12  and  _14
REMARK    6  A    between atoms: _14  and  _15
REMARK    7  A    between atoms: _14  and  _17
REMARK    8  A    between atoms: _20  and  _22
REMARK    9  A    between atoms: _22  and  _23
REMARK   10  A    between atoms: _22  and  _25
REMARK   11  A    between atoms: _25  and  _26
REMARK   12  A    between atoms: _31  and  _33
REMARK   13  A    between atoms: _33  and  _34
REMARK   14  A    between atoms: _33  and  _36
REMARK   15  A    between atoms: _36  and  _37
REMARK   16  A    between atoms: _37  and  _38
REMARK   17  A    between atoms: _43  and  _45
REMARK   18  A    between atoms: _45  and  _46
REMARK   19  A    between atoms: _45  and  _48
REMARK   20  A    between atoms: _48  and  _49
REMARK   21  A    between atoms: _55  and  _57
REMARK   22  A    between atoms: _57  and  _58
REMARK   23  A    between atoms: _57  and  _60
REMARK   24  A    between atoms: _60  and  _61
REMARK   25  A    between atoms: _64  and  _66
REMARK   26  A    between atoms: _66  and  _67
REMARK   27  A    between atoms: _66  and  _69
REMARK   28  A    between atoms: _69  and  _70
REMARK   29  A    between atoms: _70  and  _71
REMARK   30  A    between atoms: _71  and  _72
REMARK   31  A    between atoms: _72  and  _73
REMARK   32  A    between atoms: _77  and  _79
REMARK   33  A    between atoms: _79  and  _80
REMARK   34  A    between atoms: _79  and  _82
REMARK   35  A    between atoms: _82  and  _83
REMARK   36  A    between atoms: _83  and  _84
REMARK   37  A    between atoms: _87  and  _89
REMARK   38  A    between atoms: _89  and  _90
REMARK   39  A    between atoms: _89  and  _92
REMARK   40  A    between atoms: _92  and  _93
REMARK   41  A    between atoms: _96  and  _98
REMARK   42  A    between atoms: _98  and  _99
REMARK   43  A    between atoms: _98  and  _101
REMARK   44  A    between atoms: _101  and  _102
REMARK   45  A    between atoms: _107  and  _108
REMARK   46  A    between atoms: _110  and  _112
REMARK   47  A    between atoms: _112  and  _113
REMARK   48  A    between atoms: _112  and  _115
REMARK   49  A    between atoms: _115  and  _116
REMARK   50  A    between atoms: _119  and  _121
REMARK   51  A    between atoms: _121  and  _122
REMARK   52  A    between atoms: _121  and  _124
REMARK   53  A    between atoms: _124  and  _125
REMARK   54  A    between atoms: _128  and  _130
REMARK   55  A    between atoms: _130  and  _131
REMARK   56  A    between atoms: _130  and  _133
REMARK   57  A    between atoms: _136  and  _138
REMARK   58  A    between atoms: _138  and  _139
REMARK   59  A    between atoms: _138  and  _141
REMARK   60  A    between atoms: _141  and  _142
REMARK   61  A    between atoms: _142  and  _143
REMARK   62  A    between atoms: _143  and  _144
REMARK   63  A    between atoms: _153  and  _155
REMARK   64  A    between atoms: _155  and  _156
REMARK   65  A    between atoms: _155  and  _158
REMARK   66  A    between atoms: _158  and  _159
REMARK   67  A    between atoms: _162  and  _164
REMARK   68  A    between atoms: _164  and  _165
REMARK   69  A    between atoms: _164  and  _167
REMARK   70  A    between atoms: _167  and  _168
REMARK   71  A    between atoms: _173  and  _175
REMARK   72  A    between atoms: _175  and  _176
REMARK   73  A    between atoms: _175  and  _178
REMARK   74  A    between atoms: _178  and  _179
REMARK   75  A    between atoms: _179  and  _180
REMARK   76  A    between atoms: _183  and  _185
REMARK   77  A    between atoms: _185  and  _186
REMARK   78  A    between atoms: _185  and  _188
REMARK   79  A    between atoms: _188  and  _189
REMARK   80  A    between atoms: _189  and  _190
REMARK   81  A    between atoms: _190  and  _191
REMARK   82  A    between atoms: _191  and  _192
REMARK   83  A    between atoms: _196  and  _198
REMARK   84  A    between atoms: _198  and  _199
REMARK   85  A    between atoms: _201  and  _203
REMARK   86  A    between atoms: _203  and  _204
REMARK   87  A    between atoms: _203  and  _206
REMARK   88  A    between atoms: _209  and  _211
REMARK   89  A    between atoms: _211  and  _212
REMARK   90  A    between atoms: _211  and  _214
REMARK   91  A    between atoms: _214  and  _215
REMARK   92  A    between atoms: _217  and  _219
REMARK   93  A    between atoms: _219  and  _220
REMARK   94  A    between atoms: _219  and  _222
REMARK   95  A    between atoms: _222  and  _223
REMARK   96  A    between atoms: _225  and  _227
REMARK   97  A    between atoms: _227  and  _228
REMARK   98  A    between atoms: _227  and  _230
REMARK   99  A    between atoms: _230  and  _231
REMARK  100  A    between atoms: _237  and  _239
REMARK  101  A    between atoms: _239  and  _240
REMARK  102  A    between atoms: _239  and  _242
REMARK  103  A    between atoms: _242  and  _243
REMARK  104  A    between atoms: _246  and  _248
REMARK  105  A    between atoms: _248  and  _249
REMARK  106  A    between atoms: _248  and  _251
REMARK  107  A    between atoms: _251  and  _252
REMARK  108  A    between atoms: _255  and  _257
REMARK  109  A    between atoms: _257  and  _258
REMARK  110  A    between atoms: _257  and  _260
REMARK  111  A    between atoms: _260  and  _261
REMARK  112  A    between atoms: _264  and  _266
REMARK  113  A    between atoms: _266  and  _267
REMARK  114  A    between atoms: _266  and  _269
REMARK  115  A    between atoms: _269  and  _270
REMARK  116  A    between atoms: _270  and  _271
REMARK  117  A    between atoms: _273  and  _275
REMARK  118  A    between atoms: _275  and  _276
REMARK  119  A    between atoms: _275  and  _278
REMARK  120  A    between atoms: _278  and  _279
REMARK  121  A    between atoms: _285  and  _287
REMARK  122  A    between atoms: _287  and  _288
REMARK  123  A    between atoms: _287  and  _290
REMARK  124  A    between atoms: _292  and  _294
REMARK  125  A    between atoms: _294  and  _295
REMARK  126  A    between atoms: _298  and  _300
REMARK  127  A    between atoms: _300  and  _301
REMARK  128  A    between atoms: _303  and  _305
REMARK  129  A    between atoms: _305  and  _306
REMARK  130  A    between atoms: _305  and  _308
REMARK  131  A    between atoms: _308  and  _309
REMARK  132  A    between atoms: _309  and  _310
REMARK  133  A    between atoms: _313  and  _315
REMARK  134  A    between atoms: _315  and  _316
REMARK  135  A    between atoms: _315  and  _318
REMARK  136  A    between atoms: _318  and  _319
REMARK  137  A    between atoms: _322  and  _324
REMARK  138  A    between atoms: _324  and  _325
REMARK  139  A    between atoms: _328  and  _330
REMARK  140  A    between atoms: _330  and  _331
REMARK  141  A    between atoms: _330  and  _333
REMARK  142  A    between atoms: _333  and  _334
REMARK  143  A    between atoms: _334  and  _457
REMARK  144  A    between atoms: _335  and  _337
REMARK  145  A    between atoms: _337  and  _338
REMARK  146  A    between atoms: _337  and  _340
REMARK  147  A    between atoms: _340  and  _341
REMARK  148  A    between atoms: _341  and  _342
REMARK  149  A    between atoms: _347  and  _349
REMARK  150  A    between atoms: _349  and  _350
REMARK  151  A    between atoms: _352  and  _354
REMARK  152  A    between atoms: _354  and  _355
REMARK  153  A    between atoms: _354  and  _357
REMARK  154  A    between atoms: _357  and  _358
REMARK  155  A    between atoms: _361  and  _363
REMARK  156  A    between atoms: _363  and  _364
REMARK  157  A    between atoms: _363  and  _366
REMARK  158  A    between atoms: _366  and  _367
REMARK  159  A    between atoms: _369  and  _371
REMARK  160  A    between atoms: _371  and  _372
REMARK  161  A    between atoms: _374  and  _376
REMARK  162  A    between atoms: _376  and  _377
REMARK  163  A    between atoms: _379  and  _381
REMARK  164  A    between atoms: _381  and  _382
REMARK  165  A    between atoms: _381  and  _384
REMARK  166  A    between atoms: _384  and  _385
REMARK  167  A    between atoms: _390  and  _392
REMARK  168  A    between atoms: _392  and  _393
REMARK  169  A    between atoms: _392  and  _395
REMARK  170  A    between atoms: _395  and  _396
REMARK  171  A    between atoms: _399  and  _401
REMARK  172  A    between atoms: _401  and  _402
REMARK  173  A    between atoms: _401  and  _404
REMARK  174  A    between atoms: _407  and  _409
REMARK  175  A    between atoms: _409  and  _410
REMARK  176  A    between atoms: _409  and  _412
REMARK  177  A    between atoms: _412  and  _413
REMARK  178  A    between atoms: _415  and  _417
REMARK  179  A    between atoms: _417  and  _418
REMARK  180  A    between atoms: _417  and  _420
REMARK  181  A    between atoms: _420  and  _421
REMARK  182  A    between atoms: _431  and  _433
REMARK  183  A    between atoms: _433  and  _434
REMARK  184  A    between atoms: _436  and  _438
REMARK  185  A    between atoms: _438  and  _439
REMARK  186  A    between atoms: _438  and  _441
REMARK  187  A    between atoms: _441  and  _442
REMARK  188  A    between atoms: _442  and  _443
REMARK  189  A    between atoms: _446  and  _448
REMARK  190  A    between atoms: _448  and  _449
REMARK  191  A    between atoms: _451  and  _453
REMARK  192  A    between atoms: _453  and  _454
REMARK  193  A    between atoms: _453  and  _456
REMARK  194  A    between atoms: _456  and  _457
REMARK  195  A    between atoms: _458  and  _460
REMARK  196  A    between atoms: _460  and  _461
REMARK  197  A    between atoms: _464  and  _466
REMARK  198  A    between atoms: _466  and  _467
REMARK  199  A    between atoms: _466  and  _469
REMARK  200  A    between atoms: _469  and  _470
REMARK  201  A    between atoms: _470  and  _471
REMARK  202  A    between atoms: _471  and  _472
REMARK  203  A    between atoms: _481  and  _483
REMARK  204  A    between atoms: _483  and  _484
REMARK  205  A    between atoms: _483  and  _486
REMARK  206  A    between atoms: _486  and  _487
REMARK  207  A    between atoms: _487  and  _488
REMARK  208  A    between atoms: _488  and  _489
REMARK  209  A    between atoms: _489  and  _490
REMARK  210  A    between atoms: _494  and  _496
REMARK  211  A    between atoms: _496  and  _497
REMARK  212  A    between atoms: _496  and  _499
REMARK  213  A    between atoms: _499  and  _500
REMARK  214  A    between atoms: _505  and  _506
REMARK  215  A    between atoms: _508  and  _510
REMARK  216  A    between atoms: _510  and  _511
REMARK  217  A    between atoms: _513  and  _515
REMARK  218  A    between atoms: _515  and  _516
REMARK  219  A    between atoms: _515  and  _518
REMARK  220  A    between atoms: _518  and  _519
REMARK  221  A    between atoms: _522  and  _524
REMARK  222  A    between atoms: _524  and  _525
REMARK  223  A    between atoms: _524  and  _527
REMARK  224  A    between atoms: _527  and  _528
REMARK  225  A    between atoms: _533  and  _534
REMARK  226  A    between atoms: _536  and  _538
REMARK  227  A    between atoms: _538  and  _539
REMARK  228  A    between atoms: _538  and  _541
REMARK  229  A    between atoms: _541  and  _542
REMARK                            x       y       z     vdW  Elec       q    Type
REMARK                         _______ _______ _______ _____ _____    ______ ____
ROOT
ATOM      1  O   HOH     1      18.025  63.604  11.361  0.00  0.00    +0.000 OA
ENDROOT
TORSDOF 0
REMARK  Name = ../refined-set-2016/2xbw/2xbw_pocket.pdb
REMARK  229 active torsions:
REMARK  status: ('A' for Active; 'I' for Inactive)
REMARK    1  A    between atoms: _1  and  _5
REMARK    2  A    between atoms: _5  and  _6
REMARK    3  A    between atoms: _5  and  _8
REMARK    4  A    between atoms: _8  and  _9
REMARK    5  A    between atoms: _12  and  _14
REMARK    6  A    between atoms: _14  and  _15
REMARK    7  A    between atoms: _14  and  _17
REMARK    8  A    between atoms: _20  and  _22
REMARK    9  A    between atoms: _22  and  _23
REMARK   10  A    between atoms: _22  and  _25
REMARK   11  A    between atoms: _25  and  _26
REMARK   12  A    between atoms: _31  and  _33
REMARK   13  A    between atoms: _33  and  _34
REMARK   14  A    between atoms: _33  and  _36
REMARK   15  A    between atoms: _36  and  _37
REMARK   16  A    between atoms: _37  and  _38
REMARK   17  A    between atoms: _43  and  _45
REMARK   18  A    between atoms: _45  and  _46
REMARK   19  A    between atoms: _45  and  _48
REMARK   20  A    between atoms: _48  and  _49
REMARK   21  A    between atoms: _55  and  _57
REMARK   22  A    between atoms: _57  and  _58
REMARK   23  A    between atoms: _57  and  _60
REMARK   24  A    between atoms: _60  and  _61
REMARK   25  A    between atoms: _64  and  _66
REMARK   26  A    between atoms: _66  and  _67
REMARK   27  A    between atoms: _66  and  _69
REMARK   28  A    between atoms: _69  and  _70
REMARK   29  A    between atoms: _70  and  _71
REMARK   30  A    between atoms: _71  and  _72
REMARK   31  A    between atoms: _72  and  _73
REMARK   32  A    between atoms: _77  and  _79
REMARK   33  A    between atoms: _79  and  _80
REMARK   34  A    between atoms: _79  and  _82
REMARK   35  A    between atoms: _82  and  _83
REMARK   36  A    between atoms: _83  and  _84
REMARK   37  A    between atoms: _87  and  _89
REMARK   38  A    between atoms: _89  and  _90
REMARK   39  A    between atoms: _89  and  _92
REMARK   40  A    between atoms: _92  and  _93
REMARK   41  A    between atoms: _96  and  _98
REMARK   42  A    between atoms: _98  and  _99
REMARK   43  A    between atoms: _98  and  _101
REMARK   44  A    between atoms: _101  and  _102
REMARK   45  A    between atoms: _107  and  _108
REMARK   46  A    between atoms: _110  and  _112
REMARK   47  A    between atoms: _112  and  _113
REMARK   48  A    between atoms: _112  and  _115
REMARK   49  A    between atoms: _115  and  _116
REMARK   50  A    between atoms: _119  and  _121
REMARK   51  A    between atoms: _121  and  _122
REMARK   52  A    between atoms: _121  and  _124
REMARK   53  A    between atoms: _124  and  _125
REMARK   54  A    between atoms: _128  and  _130
REMARK   55  A    between atoms: _130  and  _131
REMARK   56  A    between atoms: _130  and  _133
REMARK   57  A    between atoms: _136  and  _138
REMARK   58  A    between atoms: _138  and  _139
REMARK   59  A    between atoms: _138  and  _141
REMARK   60  A    between atoms: _141  and  _142
REMARK   61  A    between atoms: _142  and  _143
REMARK   62  A    between atoms: _143  and  _144
REMARK   63  A    between atoms: _153  and  _155
REMARK   64  A    between atoms: _155  and  _156
REMARK   65  A    between atoms: _155  and  _158
REMARK   66  A    between atoms: _158  and  _159
REMARK   67  A    between atoms: _162  and  _164
REMARK   68  A    between atoms: _164  and  _165
REMARK   69  A    between atoms: _164  and  _167
REMARK   70  A    between atoms: _167  and  _168
REMARK   71  A    between atoms: _173  and  _175
REMARK   72  A    between atoms: _175  and  _176
REMARK   73  A    between atoms: _175  and  _178
REMARK   74  A    between atoms: _178  and  _179
REMARK   75  A    between atoms: _179  and  _180
REMARK   76  A    between atoms: _183  and  _185
REMARK   77  A    between atoms: _185  and  _186
REMARK   78  A    between atoms: _185  and  _188
REMARK   79  A    between atoms: _188  and  _189
REMARK   80  A    between atoms: _189  and  _190
REMARK   81  A    between atoms: _190  and  _191
REMARK   82  A    between atoms: _191  and  _192
REMARK   83  A    between atoms: _196  and  _198
REMARK   84  A    between atoms: _198  and  _199
REMARK   85  A    between atoms: _201  and  _203
REMARK   86  A    between atoms: _203  and  _204
REMARK   87  A    between atoms: _203  and  _206
REMARK   88  A    between atoms: _209  and  _211
REMARK   89  A    between atoms: _211  and  _212
REMARK   90  A    between atoms: _211  and  _214
REMARK   91  A    between atoms: _214  and  _215
REMARK   92  A    between atoms: _217  and  _219
REMARK   93  A    between atoms: _219  and  _220
REMARK   94  A    between atoms: _219  and  _222
REMARK   95  A    between atoms: _222  and  _223
REMARK   96  A    between atoms: _225  and  _227
REMARK   97  A    between atoms: _227  and  _228
REMARK   98  A    between atoms: _227  and  _230
REMARK   99  A    between atoms: _230  and  _231
REMARK  100  A    between atoms: _237  and  _239
REMARK  101  A    between atoms: _239  and  _240
REMARK  102  A    between atoms: _239  and  _242
REMARK  103  A    between atoms: _242  and  _243
REMARK  104  A    between atoms: _246  and  _248
REMARK  105  A    between atoms: _248  and  _249
REMARK  106  A    between atoms: _248  and  _251
REMARK  107  A    between atoms: _251  and  _252
REMARK  108  A    between atoms: _255  and  _257
REMARK  109  A    between atoms: _257  and  _258
REMARK  110  A    between atoms: _257  and  _260
REMARK  111  A    between atoms: _260  and  _261
REMARK  112  A    between atoms: _264  and  _266
REMARK  113  A    between atoms: _266  and  _267
REMARK  114  A    between atoms: _266  and  _269
REMARK  115  A    between atoms: _269  and  _270
REMARK  116  A    between atoms: _270  and  _271
REMARK  117  A    between atoms: _273  and  _275
REMARK  118  A    between atoms: _275  and  _276
REMARK  119  A    between atoms: _275  and  _278
REMARK  120  A    between atoms: _278  and  _279
REMARK  121  A    between atoms: _285  and  _287
REMARK  122  A    between atoms: _287  and  _288
REMARK  123  A    between atoms: _287  and  _290
REMARK  124  A    between atoms: _292  and  _294
REMARK  125  A    between atoms: _294  and  _295
REMARK  126  A    between atoms: _298  and  _300
REMARK  127  A    between atoms: _300  and  _301
REMARK  128  A    between atoms: _303  and  _305
REMARK  129  A    between atoms: _305  and  _306
REMARK  130  A    between atoms: _305  and  _308
REMARK  131  A    between atoms: _308  and  _309
REMARK  132  A    between atoms: _309  and  _310
REMARK  133  A    between atoms: _313  and  _315
REMARK  134  A    between atoms: _315  and  _316
REMARK  135  A    between atoms: _315  and  _318
REMARK  136  A    between atoms: _318  and  _319
REMARK  137  A    between atoms: _322  and  _324
REMARK  138  A    between atoms: _324  and  _325
REMARK  139  A    between atoms: _328  and  _330
REMARK  140  A    between atoms: _330  and  _331
REMARK  141  A    between atoms: _330  and  _333
REMARK  142  A    between atoms: _333  and  _334
REMARK  143  A    between atoms: _334  and  _457
REMARK  144  A    between atoms: _335  and  _337
REMARK  145  A    between atoms: _337  and  _338
REMARK  146  A    between atoms: _337  and  _340
REMARK  147  A    between atoms: _340  and  _341
REMARK  148  A    between atoms: _341  and  _342
REMARK  149  A    between atoms: _347  and  _349
REMARK  150  A    between atoms: _349  and  _350
REMARK  151  A    between atoms: _352  and  _354
REMARK  152  A    between atoms: _354  and  _355
REMARK  153  A    between atoms: _354  and  _357
REMARK  154  A    between atoms: _357  and  _358
REMARK  155  A    between atoms: _361  and  _363
REMARK  156  A    between atoms: _363  and  _364
REMARK  157  A    between atoms: _363  and  _366
REMARK  158  A    between atoms: _366  and  _367
REMARK  159  A    between atoms: _369  and  _371
REMARK  160  A    between atoms: _371  and  _372
REMARK  161  A    between atoms: _374  and  _376
REMARK  162  A    between atoms: _376  and  _377
REMARK  163  A    between atoms: _379  and  _381
REMARK  164  A    between atoms: _381  and  _382
REMARK  165  A    between atoms: _381  and  _384
REMARK  166  A    between atoms: _384  and  _385
REMARK  167  A    between atoms: _390  and  _392
REMARK  168  A    between atoms: _392  and  _393
REMARK  169  A    between atoms: _392  and  _395
REMARK  170  A    between atoms: _395  and  _396
REMARK  171  A    between atoms: _399  and  _401
REMARK  172  A    between atoms: _401  and  _402
REMARK  173  A    between atoms: _401  and  _404
REMARK  174  A    between atoms: _407  and  _409
REMARK  175  A    between atoms: _409  and  _410
REMARK  176  A    between atoms: _409  and  _412
REMARK  177  A    between atoms: _412  and  _413
REMARK  178  A    between atoms: _415  and  _417
REMARK  179  A    between atoms: _417  and  _418
REMARK  180  A    between atoms: _417  and  _420
REMARK  181  A    between atoms: _420  and  _421
REMARK  182  A    between atoms: _431  and  _433
REMARK  183  A    between atoms: _433  and  _434
REMARK  184  A    between atoms: _436  and  _438
REMARK  185  A    between atoms: _438  and  _439
REMARK  186  A    between atoms: _438  and  _441
REMARK  187  A    between atoms: _441  and  _442
REMARK  188  A    between atoms: _442  and  _443
REMARK  189  A    between atoms: _446  and  _448
REMARK  190  A    between atoms: _448  and  _449
REMARK  191  A    between atoms: _451  and  _453
REMARK  192  A    between atoms: _453  and  _454
REMARK  193  A    between atoms: _453  and  _456
REMARK  194  A    between atoms: _456  and  _457
REMARK  195  A    between atoms: _458  and  _460
REMARK  196  A    between atoms: _460  and  _461
REMARK  197  A    between atoms: _464  and  _466
REMARK  198  A    between atoms: _466  and  _467
REMARK  199  A    between atoms: _466  and  _469
REMARK  200  A    between atoms: _469  and  _470
REMARK  201  A    between atoms: _470  and  _471
REMARK  202  A    between atoms: _471  and  _472
REMARK  203  A    between atoms: _481  and  _483
REMARK  204  A    between atoms: _483  and  _484
REMARK  205  A    between atoms: _483  and  _486
REMARK  206  A    between atoms: _486  and  _487
REMARK  207  A    between atoms: _487  and  _488
REMARK  208  A    between atoms: _488  and  _489
REMARK  209  A    between atoms: _489  and  _490
REMARK  210  A    between atoms: _494  and  _496
REMARK  211  A    between atoms: _496  and  _497
REMARK  212  A    between atoms: _496  and  _499
REMARK  213  A    between atoms: _499  and  _500
REMARK  214  A    between atoms: _505  and  _506
REMARK  215  A    between atoms: _508  and  _510
REMARK  216  A    between atoms: _510  and  _511
REMARK  217  A    between atoms: _513  and  _515
REMARK  218  A    between atoms: _515  and  _516
REMARK  219  A    between atoms: _515  and  _518
REMARK  220  A    between atoms: _518  and  _519
REMARK  221  A    between atoms: _522  and  _524
REMARK  222  A    between atoms: _524  and  _525
REMARK  223  A    between atoms: _524  and  _527
REMARK  224  A    between atoms: _527  and  _528
REMARK  225  A    between atoms: _533  and  _534
REMARK  226  A    between atoms: _536  and  _538
REMARK  227  A    between atoms: _538  and  _539
REMARK  228  A    between atoms: _538  and  _541
REMARK  229  A    between atoms: _541  and  _542
REMARK                            x       y       z     vdW  Elec       q    Type
REMARK                         _______ _______ _______ _____ _____    ______ ____
ROOT
ATOM      1  O   HOH     1       6.968  68.666  -0.617  0.00  0.00    +0.000 OA
ENDROOT
TORSDOF 0
REMARK  Name = ../refined-set-2016/2xbw/2xbw_pocket.pdb
REMARK  229 active torsions:
REMARK  status: ('A' for Active; 'I' for Inactive)
REMARK    1  A    between atoms: _1  and  _5
REMARK    2  A    between atoms: _5  and  _6
REMARK    3  A    between atoms: _5  and  _8
REMARK    4  A    between atoms: _8  and  _9
REMARK    5  A    between atoms: _12  and  _14
REMARK    6  A    between atoms: _14  and  _15
REMARK    7  A    between atoms: _14  and  _17
REMARK    8  A    between atoms: _20  and  _22
REMARK    9  A    between atoms: _22  and  _23
REMARK   10  A    between atoms: _22  and  _25
REMARK   11  A    between atoms: _25  and  _26
REMARK   12  A    between atoms: _31  and  _33
REMARK   13  A    between atoms: _33  and  _34
REMARK   14  A    between atoms: _33  and  _36
REMARK   15  A    between atoms: _36  and  _37
REMARK   16  A    between atoms: _37  and  _38
REMARK   17  A    between atoms: _43  and  _45
REMARK   18  A    between atoms: _45  and  _46
REMARK   19  A    between atoms: _45  and  _48
REMARK   20  A    between atoms: _48  and  _49
REMARK   21  A    between atoms: _55  and  _57
REMARK   22  A    between atoms: _57  and  _58
REMARK   23  A    between atoms: _57  and  _60
REMARK   24  A    between atoms: _60  and  _61
REMARK   25  A    between atoms: _64  and  _66
REMARK   26  A    between atoms: _66  and  _67
REMARK   27  A    between atoms: _66  and  _69
REMARK   28  A    between atoms: _69  and  _70
REMARK   29  A    between atoms: _70  and  _71
REMARK   30  A    between atoms: _71  and  _72
REMARK   31  A    between atoms: _72  and  _73
REMARK   32  A    between atoms: _77  and  _79
REMARK   33  A    between atoms: _79  and  _80
REMARK   34  A    between atoms: _79  and  _82
REMARK   35  A    between atoms: _82  and  _83
REMARK   36  A    between atoms: _83  and  _84
REMARK   37  A    between atoms: _87  and  _89
REMARK   38  A    between atoms: _89  and  _90
REMARK   39  A    between atoms: _89  and  _92
REMARK   40  A    between atoms: _92  and  _93
REMARK   41  A    between atoms: _96  and  _98
REMARK   42  A    between atoms: _98  and  _99
REMARK   43  A    between atoms: _98  and  _101
REMARK   44  A    between atoms: _101  and  _102
REMARK   45  A    between atoms: _107  and  _108
REMARK   46  A    between atoms: _110  and  _112
REMARK   47  A    between atoms: _112  and  _113
REMARK   48  A    between atoms: _112  and  _115
REMARK   49  A    between atoms: _115  and  _116
REMARK   50  A    between atoms: _119  and  _121
REMARK   51  A    between atoms: _121  and  _122
REMARK   52  A    between atoms: _121  and  _124
REMARK   53  A    between atoms: _124  and  _125
REMARK   54  A    between atoms: _128  and  _130
REMARK   55  A    between atoms: _130  and  _131
REMARK   56  A    between atoms: _130  and  _133
REMARK   57  A    between atoms: _136  and  _138
REMARK   58  A    between atoms: _138  and  _139
REMARK   59  A    between atoms: _138  and  _141
REMARK   60  A    between atoms: _141  and  _142
REMARK   61  A    between atoms: _142  and  _143
REMARK   62  A    between atoms: _143  and  _144
REMARK   63  A    between atoms: _153  and  _155
REMARK   64  A    between atoms: _155  and  _156
REMARK   65  A    between atoms: _155  and  _158
REMARK   66  A    between atoms: _158  and  _159
REMARK   67  A    between atoms: _162  and  _164
REMARK   68  A    between atoms: _164  and  _165
REMARK   69  A    between atoms: _164  and  _167
REMARK   70  A    between atoms: _167  and  _168
REMARK   71  A    between atoms: _173  and  _175
REMARK   72  A    between atoms: _175  and  _176
REMARK   73  A    between atoms: _175  and  _178
REMARK   74  A    between atoms: _178  and  _179
REMARK   75  A    between atoms: _179  and  _180
REMARK   76  A    between atoms: _183  and  _185
REMARK   77  A    between atoms: _185  and  _186
REMARK   78  A    between atoms: _185  and  _188
REMARK   79  A    between atoms: _188  and  _189
REMARK   80  A    between atoms: _189  and  _190
REMARK   81  A    between atoms: _190  and  _191
REMARK   82  A    between atoms: _191  and  _192
REMARK   83  A    between atoms: _196  and  _198
REMARK   84  A    between atoms: _198  and  _199
REMARK   85  A    between atoms: _201  and  _203
REMARK   86  A    between atoms: _203  and  _204
REMARK   87  A    between atoms: _203  and  _206
REMARK   88  A    between atoms: _209  and  _211
REMARK   89  A    between atoms: _211  and  _212
REMARK   90  A    between atoms: _211  and  _214
REMARK   91  A    between atoms: _214  and  _215
REMARK   92  A    between atoms: _217  and  _219
REMARK   93  A    between atoms: _219  and  _220
REMARK   94  A    between atoms: _219  and  _222
REMARK   95  A    between atoms: _222  and  _223
REMARK   96  A    between atoms: _225  and  _227
REMARK   97  A    between atoms: _227  and  _228
REMARK   98  A    between atoms: _227  and  _230
REMARK   99  A    between atoms: _230  and  _231
REMARK  100  A    between atoms: _237  and  _239
REMARK  101  A    between atoms: _239  and  _240
REMARK  102  A    between atoms: _239  and  _242
REMARK  103  A    between atoms: _242  and  _243
REMARK  104  A    between atoms: _246  and  _248
REMARK  105  A    between atoms: _248  and  _249
REMARK  106  A    between atoms: _248  and  _251
REMARK  107  A    between atoms: _251  and  _252
REMARK  108  A    between atoms: _255  and  _257
REMARK  109  A    between atoms: _257  and  _258
REMARK  110  A    between atoms: _257  and  _260
REMARK  111  A    between atoms: _260  and  _261
REMARK  112  A    between atoms: _264  and  _266
REMARK  113  A    between atoms: _266  and  _267
REMARK  114  A    between atoms: _266  and  _269
REMARK  115  A    between atoms: _269  and  _270
REMARK  116  A    between atoms: _270  and  _271
REMARK  117  A    between atoms: _273  and  _275
REMARK  118  A    between atoms: _275  and  _276
REMARK  119  A    between atoms: _275  and  _278
REMARK  120  A    between atoms: _278  and  _279
REMARK  121  A    between atoms: _285  and  _287
REMARK  122  A    between atoms: _287  and  _288
REMARK  123  A    between atoms: _287  and  _290
REMARK  124  A    between atoms: _292  and  _294
REMARK  125  A    between atoms: _294  and  _295
REMARK  126  A    between atoms: _298  and  _300
REMARK  127  A    between atoms: _300  and  _301
REMARK  128  A    between atoms: _303  and  _305
REMARK  129  A    between atoms: _305  and  _306
REMARK  130  A    between atoms: _305  and  _308
REMARK  131  A    between atoms: _308  and  _309
REMARK  132  A    between atoms: _309  and  _310
REMARK  133  A    between atoms: _313  and  _315
REMARK  134  A    between atoms: _315  and  _316
REMARK  135  A    between atoms: _315  and  _318
REMARK  136  A    between atoms: _318  and  _319
REMARK  137  A    between atoms: _322  and  _324
REMARK  138  A    between atoms: _324  and  _325
REMARK  139  A    between atoms: _328  and  _330
REMARK  140  A    between atoms: _330  and  _331
REMARK  141  A    between atoms: _330  and  _333
REMARK  142  A    between atoms: _333  and  _334
REMARK  143  A    between atoms: _334  and  _457
REMARK  144  A    between atoms: _335  and  _337
REMARK  145  A    between atoms: _337  and  _338
REMARK  146  A    between atoms: _337  and  _340
REMARK  147  A    between atoms: _340  and  _341
REMARK  148  A    between atoms: _341  and  _342
REMARK  149  A    between atoms: _347  and  _349
REMARK  150  A    between atoms: _349  and  _350
REMARK  151  A    between atoms: _352  and  _354
REMARK  152  A    between atoms: _354  and  _355
REMARK  153  A    between atoms: _354  and  _357
REMARK  154  A    between atoms: _357  and  _358
REMARK  155  A    between atoms: _361  and  _363
REMARK  156  A    between atoms: _363  and  _364
REMARK  157  A    between atoms: _363  and  _366
REMARK  158  A    between atoms: _366  and  _367
REMARK  159  A    between atoms: _369  and  _371
REMARK  160  A    between atoms: _371  and  _372
REMARK  161  A    between atoms: _374  and  _376
REMARK  162  A    between atoms: _376  and  _377
REMARK  163  A    between atoms: _379  and  _381
REMARK  164  A    between atoms: _381  and  _382
REMARK  165  A    between atoms: _381  and  _384
REMARK  166  A    between atoms: _384  and  _385
REMARK  167  A    between atoms: _390  and  _392
REMARK  168  A    between atoms: _392  and  _393
REMARK  169  A    between atoms: _392  and  _395
REMARK  170  A    between atoms: _395  and  _396
REMARK  171  A    between atoms: _399  and  _401
REMARK  172  A    between atoms: _401  and  _402
REMARK  173  A    between atoms: _401  and  _404
REMARK  174  A    between atoms: _407  and  _409
REMARK  175  A    between atoms: _409  and  _410
REMARK  176  A    between atoms: _409  and  _412
REMARK  177  A    between atoms: _412  and  _413
REMARK  178  A    between atoms: _415  and  _417
REMARK  179  A    between atoms: _417  and  _418
REMARK  180  A    between atoms: _417  and  _420
REMARK  181  A    between atoms: _420  and  _421
REMARK  182  A    between atoms: _431  and  _433
REMARK  183  A    between atoms: _433  and  _434
REMARK  184  A    between atoms: _436  and  _438
REMARK  185  A    between atoms: _438  and  _439
REMARK  186  A    between atoms: _438  and  _441
REMARK  187  A    between atoms: _441  and  _442
REMARK  188  A    between atoms: _442  and  _443
REMARK  189  A    between atoms: _446  and  _448
REMARK  190  A    between atoms: _448  and  _449
REMARK  191  A    between atoms: _451  and  _453
REMARK  192  A    between atoms: _453  and  _454
REMARK  193  A    between atoms: _453  and  _456
REMARK  194  A    between atoms: _456  and  _457
REMARK  195  A    between atoms: _458  and  _460
REMARK  196  A    between atoms: _460  and  _461
REMARK  197  A    between atoms: _464  and  _466
REMARK  198  A    between atoms: _466  and  _467
REMARK  199  A    between atoms: _466  and  _469
REMARK  200  A    between atoms: _469  and  _470
REMARK  201  A    between atoms: _470  and  _471
REMARK  202  A    between atoms: _471  and  _472
REMARK  203  A    between atoms: _481  and  _483
REMARK  204  A    between atoms: _483  and  _484
REMARK  205  A    between atoms: _483  and  _486
REMARK  206  A    between atoms: _486  and  _487
REMARK  207  A    between atoms: _487  and  _488
REMARK  208  A    between atoms: _488  and  _489
REMARK  209  A    between atoms: _489  and  _490
REMARK  210  A    between atoms: _494  and  _496
REMARK  211  A    between atoms: _496  and  _497
REMARK  212  A    between atoms: _496  and  _499
REMARK  213  A    between atoms: _499  and  _500
REMARK  214  A    between atoms: _505  and  _506
REMARK  215  A    between atoms: _508  and  _510
REMARK  216  A    between atoms: _510  and  _511
REMARK  217  A    between atoms: _513  and  _515
REMARK  218  A    between atoms: _515  and  _516
REMARK  219  A    between atoms: _515  and  _518
REMARK  220  A    between atoms: _518  and  _519
REMARK  221  A    between atoms: _522  and  _524
REMARK  222  A    between atoms: _524  and  _525
REMARK  223  A    between atoms: _524  and  _527
REMARK  224  A    between atoms: _527  and  _528
REMARK  225  A    between atoms: _533  and  _534
REMARK  226  A    between atoms: _536  and  _538
REMARK  227  A    between atoms: _538  and  _539
REMARK  228  A    between atoms: _538  and  _541
REMARK  229  A    between atoms: _541  and  _542
REMARK                            x       y       z     vdW  Elec       q    Type
REMARK                         _______ _______ _______ _____ _____    ______ ____
ROOT
ATOM      1  O   HOH     1      11.167  65.169   0.140  0.00  0.00    +0.000 OA
ENDROOT
TORSDOF 0
REMARK  Name = ../refined-set-2016/2xbw/2xbw_pocket.pdb
REMARK  229 active torsions:
REMARK  status: ('A' for Active; 'I' for Inactive)
REMARK    1  A    between atoms: _1  and  _5
REMARK    2  A    between atoms: _5  and  _6
REMARK    3  A    between atoms: _5  and  _8
REMARK    4  A    between atoms: _8  and  _9
REMARK    5  A    between atoms: _12  and  _14
REMARK    6  A    between atoms: _14  and  _15
REMARK    7  A    between atoms: _14  and  _17
REMARK    8  A    between atoms: _20  and  _22
REMARK    9  A    between atoms: _22  and  _23
REMARK   10  A    between atoms: _22  and  _25
REMARK   11  A    between atoms: _25  and  _26
REMARK   12  A    between atoms: _31  and  _33
REMARK   13  A    between atoms: _33  and  _34
REMARK   14  A    between atoms: _33  and  _36
REMARK   15  A    between atoms: _36  and  _37
REMARK   16  A    between atoms: _37  and  _38
REMARK   17  A    between atoms: _43  and  _45
REMARK   18  A    between atoms: _45  and  _46
REMARK   19  A    between atoms: _45  and  _48
REMARK   20  A    between atoms: _48  and  _49
REMARK   21  A    between atoms: _55  and  _57
REMARK   22  A    between atoms: _57  and  _58
REMARK   23  A    between atoms: _57  and  _60
REMARK   24  A    between atoms: _60  and  _61
REMARK   25  A    between atoms: _64  and  _66
REMARK   26  A    between atoms: _66  and  _67
REMARK   27  A    between atoms: _66  and  _69
REMARK   28  A    between atoms: _69  and  _70
REMARK   29  A    between atoms: _70  and  _71
REMARK   30  A    between atoms: _71  and  _72
REMARK   31  A    between atoms: _72  and  _73
REMARK   32  A    between atoms: _77  and  _79
REMARK   33  A    between atoms: _79  and  _80
REMARK   34  A    between atoms: _79  and  _82
REMARK   35  A    between atoms: _82  and  _83
REMARK   36  A    between atoms: _83  and  _84
REMARK   37  A    between atoms: _87  and  _89
REMARK   38  A    between atoms: _89  and  _90
REMARK   39  A    between atoms: _89  and  _92
REMARK   40  A    between atoms: _92  and  _93
REMARK   41  A    between atoms: _96  and  _98
REMARK   42  A    between atoms: _98  and  _99
REMARK   43  A    between atoms: _98  and  _101
REMARK   44  A    between atoms: _101  and  _102
REMARK   45  A    between atoms: _107  and  _108
REMARK   46  A    between atoms: _110  and  _112
REMARK   47  A    between atoms: _112  and  _113
REMARK   48  A    between atoms: _112  and  _115
REMARK   49  A    between atoms: _115  and  _116
REMARK   50  A    between atoms: _119  and  _121
REMARK   51  A    between atoms: _121  and  _122
REMARK   52  A    between atoms: _121  and  _124
REMARK   53  A    between atoms: _124  and  _125
REMARK   54  A    between atoms: _128  and  _130
REMARK   55  A    between atoms: _130  and  _131
REMARK   56  A    between atoms: _130  and  _133
REMARK   57  A    between atoms: _136  and  _138
REMARK   58  A    between atoms: _138  and  _139
REMARK   59  A    between atoms: _138  and  _141
REMARK   60  A    between atoms: _141  and  _142
REMARK   61  A    between atoms: _142  and  _143
REMARK   62  A    between atoms: _143  and  _144
REMARK   63  A    between atoms: _153  and  _155
REMARK   64  A    between atoms: _155  and  _156
REMARK   65  A    between atoms: _155  and  _158
REMARK   66  A    between atoms: _158  and  _159
REMARK   67  A    between atoms: _162  and  _164
REMARK   68  A    between atoms: _164  and  _165
REMARK   69  A    between atoms: _164  and  _167
REMARK   70  A    between atoms: _167  and  _168
REMARK   71  A    between atoms: _173  and  _175
REMARK   72  A    between atoms: _175  and  _176
REMARK   73  A    between atoms: _175  and  _178
REMARK   74  A    between atoms: _178  and  _179
REMARK   75  A    between atoms: _179  and  _180
REMARK   76  A    between atoms: _183  and  _185
REMARK   77  A    between atoms: _185  and  _186
REMARK   78  A    between atoms: _185  and  _188
REMARK   79  A    between atoms: _188  and  _189
REMARK   80  A    between atoms: _189  and  _190
REMARK   81  A    between atoms: _190  and  _191
REMARK   82  A    between atoms: _191  and  _192
REMARK   83  A    between atoms: _196  and  _198
REMARK   84  A    between atoms: _198  and  _199
REMARK   85  A    between atoms: _201  and  _203
REMARK   86  A    between atoms: _203  and  _204
REMARK   87  A    between atoms: _203  and  _206
REMARK   88  A    between atoms: _209  and  _211
REMARK   89  A    between atoms: _211  and  _212
REMARK   90  A    between atoms: _211  and  _214
REMARK   91  A    between atoms: _214  and  _215
REMARK   92  A    between atoms: _217  and  _219
REMARK   93  A    between atoms: _219  and  _220
REMARK   94  A    between atoms: _219  and  _222
REMARK   95  A    between atoms: _222  and  _223
REMARK   96  A    between atoms: _225  and  _227
REMARK   97  A    between atoms: _227  and  _228
REMARK   98  A    between atoms: _227  and  _230
REMARK   99  A    between atoms: _230  and  _231
REMARK  100  A    between atoms: _237  and  _239
REMARK  101  A    between atoms: _239  and  _240
REMARK  102  A    between atoms: _239  and  _242
REMARK  103  A    between atoms: _242  and  _243
REMARK  104  A    between atoms: _246  and  _248
REMARK  105  A    between atoms: _248  and  _249
REMARK  106  A    between atoms: _248  and  _251
REMARK  107  A    between atoms: _251  and  _252
REMARK  108  A    between atoms: _255  and  _257
REMARK  109  A    between atoms: _257  and  _258
REMARK  110  A    between atoms: _257  and  _260
REMARK  111  A    between atoms: _260  and  _261
REMARK  112  A    between atoms: _264  and  _266
REMARK  113  A    between atoms: _266  and  _267
REMARK  114  A    between atoms: _266  and  _269
REMARK  115  A    between atoms: _269  and  _270
REMARK  116  A    between atoms: _270  and  _271
REMARK  117  A    between atoms: _273  and  _275
REMARK  118  A    between atoms: _275  and  _276
REMARK  119  A    between atoms: _275  and  _278
REMARK  120  A    between atoms: _278  and  _279
REMARK  121  A    between atoms: _285  and  _287
REMARK  122  A    between atoms: _287  and  _288
REMARK  123  A    between atoms: _287  and  _290
REMARK  124  A    between atoms: _292  and  _294
REMARK  125  A    between atoms: _294  and  _295
REMARK  126  A    between atoms: _298  and  _300
REMARK  127  A    between atoms: _300  and  _301
REMARK  128  A    between atoms: _303  and  _305
REMARK  129  A    between atoms: _305  and  _306
REMARK  130  A    between atoms: _305  and  _308
REMARK  131  A    between atoms: _308  and  _309
REMARK  132  A    between atoms: _309  and  _310
REMARK  133  A    between atoms: _313  and  _315
REMARK  134  A    between atoms: _315  and  _316
REMARK  135  A    between atoms: _315  and  _318
REMARK  136  A    between atoms: _318  and  _319
REMARK  137  A    between atoms: _322  and  _324
REMARK  138  A    between atoms: _324  and  _325
REMARK  139  A    between atoms: _328  and  _330
REMARK  140  A    between atoms: _330  and  _331
REMARK  141  A    between atoms: _330  and  _333
REMARK  142  A    between atoms: _333  and  _334
REMARK  143  A    between atoms: _334  and  _457
REMARK  144  A    between atoms: _335  and  _337
REMARK  145  A    between atoms: _337  and  _338
REMARK  146  A    between atoms: _337  and  _340
REMARK  147  A    between atoms: _340  and  _341
REMARK  148  A    between atoms: _341  and  _342
REMARK  149  A    between atoms: _347  and  _349
REMARK  150  A    between atoms: _349  and  _350
REMARK  151  A    between atoms: _352  and  _354
REMARK  152  A    between atoms: _354  and  _355
REMARK  153  A    between atoms: _354  and  _357
REMARK  154  A    between atoms: _357  and  _358
REMARK  155  A    between atoms: _361  and  _363
REMARK  156  A    between atoms: _363  and  _364
REMARK  157  A    between atoms: _363  and  _366
REMARK  158  A    between atoms: _366  and  _367
REMARK  159  A    between atoms: _369  and  _371
REMARK  160  A    between atoms: _371  and  _372
REMARK  161  A    between atoms: _374  and  _376
REMARK  162  A    between atoms: _376  and  _377
REMARK  163  A    between atoms: _379  and  _381
REMARK  164  A    between atoms: _381  and  _382
REMARK  165  A    between atoms: _381  and  _384
REMARK  166  A    between atoms: _384  and  _385
REMARK  167  A    between atoms: _390  and  _392
REMARK  168  A    between atoms: _392  and  _393
REMARK  169  A    between atoms: _392  and  _395
REMARK  170  A    between atoms: _395  and  _396
REMARK  171  A    between atoms: _399  and  _401
REMARK  172  A    between atoms: _401  and  _402
REMARK  173  A    between atoms: _401  and  _404
REMARK  174  A    between atoms: _407  and  _409
REMARK  175  A    between atoms: _409  and  _410
REMARK  176  A    between atoms: _409  and  _412
REMARK  177  A    between atoms: _412  and  _413
REMARK  178  A    between atoms: _415  and  _417
REMARK  179  A    between atoms: _417  and  _418
REMARK  180  A    between atoms: _417  and  _420
REMARK  181  A    between atoms: _420  and  _421
REMARK  182  A    between atoms: _431  and  _433
REMARK  183  A    between atoms: _433  and  _434
REMARK  184  A    between atoms: _436  and  _438
REMARK  185  A    between atoms: _438  and  _439
REMARK  186  A    between atoms: _438  and  _441
REMARK  187  A    between atoms: _441  and  _442
REMARK  188  A    between atoms: _442  and  _443
REMARK  189  A    between atoms: _446  and  _448
REMARK  190  A    between atoms: _448  and  _449
REMARK  191  A    between atoms: _451  and  _453
REMARK  192  A    between atoms: _453  and  _454
REMARK  193  A    between atoms: _453  and  _456
REMARK  194  A    between atoms: _456  and  _457
REMARK  195  A    between atoms: _458  and  _460
REMARK  196  A    between atoms: _460  and  _461
REMARK  197  A    between atoms: _464  and  _466
REMARK  198  A    between atoms: _466  and  _467
REMARK  199  A    between atoms: _466  and  _469
REMARK  200  A    between atoms: _469  and  _470
REMARK  201  A    between atoms: _470  and  _471
REMARK  202  A    between atoms: _471  and  _472
REMARK  203  A    between atoms: _481  and  _483
REMARK  204  A    between atoms: _483  and  _484
REMARK  205  A    between atoms: _483  and  _486
REMARK  206  A    between atoms: _486  and  _487
REMARK  207  A    between atoms: _487  and  _488
REMARK  208  A    between atoms: _488  and  _489
REMARK  209  A    between atoms: _489  and  _490
REMARK  210  A    between atoms: _494  and  _496
REMARK  211  A    between atoms: _496  and  _497
REMARK  212  A    between atoms: _496  and  _499
REMARK  213  A    between atoms: _499  and  _500
REMARK  214  A    between atoms: _505  and  _506
REMARK  215  A    between atoms: _508  and  _510
REMARK  216  A    between atoms: _510  and  _511
REMARK  217  A    between atoms: _513  and  _515
REMARK  218  A    between atoms: _515  and  _516
REMARK  219  A    between atoms: _515  and  _518
REMARK  220  A    between atoms: _518  and  _519
REMARK  221  A    between atoms: _522  and  _524
REMARK  222  A    between atoms: _524  and  _525
REMARK  223  A    between atoms: _524  and  _527
REMARK  224  A    between atoms: _527  and  _528
REMARK  225  A    between atoms: _533  and  _534
REMARK  226  A    between atoms: _536  and  _538
REMARK  227  A    between atoms: _538  and  _539
REMARK  228  A    between atoms: _538  and  _541
REMARK  229  A    between atoms: _541  and  _542
REMARK                            x       y       z     vdW  Elec       q    Type
REMARK                         _______ _______ _______ _____ _____    ______ ____
ROOT
ATOM      1  O   HOH     1       9.001  70.865  -1.773  0.00  0.00    +0.000 OA
ENDROOT
TORSDOF 0
REMARK  Name = ../refined-set-2016/2xbw/2xbw_pocket.pdb
REMARK  229 active torsions:
REMARK  status: ('A' for Active; 'I' for Inactive)
REMARK    1  A    between atoms: _1  and  _5
REMARK    2  A    between atoms: _5  and  _6
REMARK    3  A    between atoms: _5  and  _8
REMARK    4  A    between atoms: _8  and  _9
REMARK    5  A    between atoms: _12  and  _14
REMARK    6  A    between atoms: _14  and  _15
REMARK    7  A    between atoms: _14  and  _17
REMARK    8  A    between atoms: _20  and  _22
REMARK    9  A    between atoms: _22  and  _23
REMARK   10  A    between atoms: _22  and  _25
REMARK   11  A    between atoms: _25  and  _26
REMARK   12  A    between atoms: _31  and  _33
REMARK   13  A    between atoms: _33  and  _34
REMARK   14  A    between atoms: _33  and  _36
REMARK   15  A    between atoms: _36  and  _37
REMARK   16  A    between atoms: _37  and  _38
REMARK   17  A    between atoms: _43  and  _45
REMARK   18  A    between atoms: _45  and  _46
REMARK   19  A    between atoms: _45  and  _48
REMARK   20  A    between atoms: _48  and  _49
REMARK   21  A    between atoms: _55  and  _57
REMARK   22  A    between atoms: _57  and  _58
REMARK   23  A    between atoms: _57  and  _60
REMARK   24  A    between atoms: _60  and  _61
REMARK   25  A    between atoms: _64  and  _66
REMARK   26  A    between atoms: _66  and  _67
REMARK   27  A    between atoms: _66  and  _69
REMARK   28  A    between atoms: _69  and  _70
REMARK   29  A    between atoms: _70  and  _71
REMARK   30  A    between atoms: _71  and  _72
REMARK   31  A    between atoms: _72  and  _73
REMARK   32  A    between atoms: _77  and  _79
REMARK   33  A    between atoms: _79  and  _80
REMARK   34  A    between atoms: _79  and  _82
REMARK   35  A    between atoms: _82  and  _83
REMARK   36  A    between atoms: _83  and  _84
REMARK   37  A    between atoms: _87  and  _89
REMARK   38  A    between atoms: _89  and  _90
REMARK   39  A    between atoms: _89  and  _92
REMARK   40  A    between atoms: _92  and  _93
REMARK   41  A    between atoms: _96  and  _98
REMARK   42  A    between atoms: _98  and  _99
REMARK   43  A    between atoms: _98  and  _101
REMARK   44  A    between atoms: _101  and  _102
REMARK   45  A    between atoms: _107  and  _108
REMARK   46  A    between atoms: _110  and  _112
REMARK   47  A    between atoms: _112  and  _113
REMARK   48  A    between atoms: _112  and  _115
REMARK   49  A    between atoms: _115  and  _116
REMARK   50  A    between atoms: _119  and  _121
REMARK   51  A    between atoms: _121  and  _122
REMARK   52  A    between atoms: _121  and  _124
REMARK   53  A    between atoms: _124  and  _125
REMARK   54  A    between atoms: _128  and  _130
REMARK   55  A    between atoms: _130  and  _131
REMARK   56  A    between atoms: _130  and  _133
REMARK   57  A    between atoms: _136  and  _138
REMARK   58  A    between atoms: _138  and  _139
REMARK   59  A    between atoms: _138  and  _141
REMARK   60  A    between atoms: _141  and  _142
REMARK   61  A    between atoms: _142  and  _143
REMARK   62  A    between atoms: _143  and  _144
REMARK   63  A    between atoms: _153  and  _155
REMARK   64  A    between atoms: _155  and  _156
REMARK   65  A    between atoms: _155  and  _158
REMARK   66  A    between atoms: _158  and  _159
REMARK   67  A    between atoms: _162  and  _164
REMARK   68  A    between atoms: _164  and  _165
REMARK   69  A    between atoms: _164  and  _167
REMARK   70  A    between atoms: _167  and  _168
REMARK   71  A    between atoms: _173  and  _175
REMARK   72  A    between atoms: _175  and  _176
REMARK   73  A    between atoms: _175  and  _178
REMARK   74  A    between atoms: _178  and  _179
REMARK   75  A    between atoms: _179  and  _180
REMARK   76  A    between atoms: _183  and  _185
REMARK   77  A    between atoms: _185  and  _186
REMARK   78  A    between atoms: _185  and  _188
REMARK   79  A    between atoms: _188  and  _189
REMARK   80  A    between atoms: _189  and  _190
REMARK   81  A    between atoms: _190  and  _191
REMARK   82  A    between atoms: _191  and  _192
REMARK   83  A    between atoms: _196  and  _198
REMARK   84  A    between atoms: _198  and  _199
REMARK   85  A    between atoms: _201  and  _203
REMARK   86  A    between atoms: _203  and  _204
REMARK   87  A    between atoms: _203  and  _206
REMARK   88  A    between atoms: _209  and  _211
REMARK   89  A    between atoms: _211  and  _212
REMARK   90  A    between atoms: _211  and  _214
REMARK   91  A    between atoms: _214  and  _215
REMARK   92  A    between atoms: _217  and  _219
REMARK   93  A    between atoms: _219  and  _220
REMARK   94  A    between atoms: _219  and  _222
REMARK   95  A    between atoms: _222  and  _223
REMARK   96  A    between atoms: _225  and  _227
REMARK   97  A    between atoms: _227  and  _228
REMARK   98  A    between atoms: _227  and  _230
REMARK   99  A    between atoms: _230  and  _231
REMARK  100  A    between atoms: _237  and  _239
REMARK  101  A    between atoms: _239  and  _240
REMARK  102  A    between atoms: _239  and  _242
REMARK  103  A    between atoms: _242  and  _243
REMARK  104  A    between atoms: _246  and  _248
REMARK  105  A    between atoms: _248  and  _249
REMARK  106  A    between atoms: _248  and  _251
REMARK  107  A    between atoms: _251  and  _252
REMARK  108  A    between atoms: _255  and  _257
REMARK  109  A    between atoms: _257  and  _258
REMARK  110  A    between atoms: _257  and  _260
REMARK  111  A    between atoms: _260  and  _261
REMARK  112  A    between atoms: _264  and  _266
REMARK  113  A    between atoms: _266  and  _267
REMARK  114  A    between atoms: _266  and  _269
REMARK  115  A    between atoms: _269  and  _270
REMARK  116  A    between atoms: _270  and  _271
REMARK  117  A    between atoms: _273  and  _275
REMARK  118  A    between atoms: _275  and  _276
REMARK  119  A    between atoms: _275  and  _278
REMARK  120  A    between atoms: _278  and  _279
REMARK  121  A    between atoms: _285  and  _287
REMARK  122  A    between atoms: _287  and  _288
REMARK  123  A    between atoms: _287  and  _290
REMARK  124  A    between atoms: _292  and  _294
REMARK  125  A    between atoms: _294  and  _295
REMARK  126  A    between atoms: _298  and  _300
REMARK  127  A    between atoms: _300  and  _301
REMARK  128  A    between atoms: _303  and  _305
REMARK  129  A    between atoms: _305  and  _306
REMARK  130  A    between atoms: _305  and  _308
REMARK  131  A    between atoms: _308  and  _309
REMARK  132  A    between atoms: _309  and  _310
REMARK  133  A    between atoms: _313  and  _315
REMARK  134  A    between atoms: _315  and  _316
REMARK  135  A    between atoms: _315  and  _318
REMARK  136  A    between atoms: _318  and  _319
REMARK  137  A    between atoms: _322  and  _324
REMARK  138  A    between atoms: _324  and  _325
REMARK  139  A    between atoms: _328  and  _330
REMARK  140  A    between atoms: _330  and  _331
REMARK  141  A    between atoms: _330  and  _333
REMARK  142  A    between atoms: _333  and  _334
REMARK  143  A    between atoms: _334  and  _457
REMARK  144  A    between atoms: _335  and  _337
REMARK  145  A    between atoms: _337  and  _338
REMARK  146  A    between atoms: _337  and  _340
REMARK  147  A    between atoms: _340  and  _341
REMARK  148  A    between atoms: _341  and  _342
REMARK  149  A    between atoms: _347  and  _349
REMARK  150  A    between atoms: _349  and  _350
REMARK  151  A    between atoms: _352  and  _354
REMARK  152  A    between atoms: _354  and  _355
REMARK  153  A    between atoms: _354  and  _357
REMARK  154  A    between atoms: _357  and  _358
REMARK  155  A    between atoms: _361  and  _363
REMARK  156  A    between atoms: _363  and  _364
REMARK  157  A    between atoms: _363  and  _366
REMARK  158  A    between atoms: _366  and  _367
REMARK  159  A    between atoms: _369  and  _371
REMARK  160  A    between atoms: _371  and  _372
REMARK  161  A    between atoms: _374  and  _376
REMARK  162  A    between atoms: _376  and  _377
REMARK  163  A    between atoms: _379  and  _381
REMARK  164  A    between atoms: _381  and  _382
REMARK  165  A    between atoms: _381  and  _384
REMARK  166  A    between atoms: _384  and  _385
REMARK  167  A    between atoms: _390  and  _392
REMARK  168  A    between atoms: _392  and  _393
REMARK  169  A    between atoms: _392  and  _395
REMARK  170  A    between atoms: _395  and  _396
REMARK  171  A    between atoms: _399  and  _401
REMARK  172  A    between atoms: _401  and  _402
REMARK  173  A    between atoms: _401  and  _404
REMARK  174  A    between atoms: _407  and  _409
REMARK  175  A    between atoms: _409  and  _410
REMARK  176  A    between atoms: _409  and  _412
REMARK  177  A    between atoms: _412  and  _413
REMARK  178  A    between atoms: _415  and  _417
REMARK  179  A    between atoms: _417  and  _418
REMARK  180  A    between atoms: _417  and  _420
REMARK  181  A    between atoms: _420  and  _421
REMARK  182  A    between atoms: _431  and  _433
REMARK  183  A    between atoms: _433  and  _434
REMARK  184  A    between atoms: _436  and  _438
REMARK  185  A    between atoms: _438  and  _439
REMARK  186  A    between atoms: _438  and  _441
REMARK  187  A    between atoms: _441  and  _442
REMARK  188  A    between atoms: _442  and  _443
REMARK  189  A    between atoms: _446  and  _448
REMARK  190  A    between atoms: _448  and  _449
REMARK  191  A    between atoms: _451  and  _453
REMARK  192  A    between atoms: _453  and  _454
REMARK  193  A    between atoms: _453  and  _456
REMARK  194  A    between atoms: _456  and  _457
REMARK  195  A    between atoms: _458  and  _460
REMARK  196  A    between atoms: _460  and  _461
REMARK  197  A    between atoms: _464  and  _466
REMARK  198  A    between atoms: _466  and  _467
REMARK  199  A    between atoms: _466  and  _469
REMARK  200  A    between atoms: _469  and  _470
REMARK  201  A    between atoms: _470  and  _471
REMARK  202  A    between atoms: _471  and  _472
REMARK  203  A    between atoms: _481  and  _483
REMARK  204  A    between atoms: _483  and  _484
REMARK  205  A    between atoms: _483  and  _486
REMARK  206  A    between atoms: _486  and  _487
REMARK  207  A    between atoms: _487  and  _488
REMARK  208  A    between atoms: _488  and  _489
REMARK  209  A    between atoms: _489  and  _490
REMARK  210  A    between atoms: _494  and  _496
REMARK  211  A    between atoms: _496  and  _497
REMARK  212  A    between atoms: _496  and  _499
REMARK  213  A    between atoms: _499  and  _500
REMARK  214  A    between atoms: _505  and  _506
REMARK  215  A    between atoms: _508  and  _510
REMARK  216  A    between atoms: _510  and  _511
REMARK  217  A    between atoms: _513  and  _515
REMARK  218  A    between atoms: _515  and  _516
REMARK  219  A    between atoms: _515  and  _518
REMARK  220  A    between atoms: _518  and  _519
REMARK  221  A    between atoms: _522  and  _524
REMARK  222  A    between atoms: _524  and  _525
REMARK  223  A    between atoms: _524  and  _527
REMARK  224  A    between atoms: _527  and  _528
REMARK  225  A    between atoms: _533  and  _534
REMARK  226  A    between atoms: _536  and  _538
REMARK  227  A    between atoms: _538  and  _539
REMARK  228  A    between atoms: _538  and  _541
REMARK  229  A    between atoms: _541  and  _542
REMARK                            x       y       z     vdW  Elec       q    Type
REMARK                         _______ _______ _______ _____ _____    ______ ____
ROOT
ATOM      1  O   HOH     1      13.328  55.187   3.439  0.00  0.00    +0.000 OA
ENDROOT
TORSDOF 0
REMARK  Name = ../refined-set-2016/2xbw/2xbw_pocket.pdb
REMARK  229 active torsions:
REMARK  status: ('A' for Active; 'I' for Inactive)
REMARK    1  A    between atoms: _1  and  _5
REMARK    2  A    between atoms: _5  and  _6
REMARK    3  A    between atoms: _5  and  _8
REMARK    4  A    between atoms: _8  and  _9
REMARK    5  A    between atoms: _12  and  _14
REMARK    6  A    between atoms: _14  and  _15
REMARK    7  A    between atoms: _14  and  _17
REMARK    8  A    between atoms: _20  and  _22
REMARK    9  A    between atoms: _22  and  _23
REMARK   10  A    between atoms: _22  and  _25
REMARK   11  A    between atoms: _25  and  _26
REMARK   12  A    between atoms: _31  and  _33
REMARK   13  A    between atoms: _33  and  _34
REMARK   14  A    between atoms: _33  and  _36
REMARK   15  A    between atoms: _36  and  _37
REMARK   16  A    between atoms: _37  and  _38
REMARK   17  A    between atoms: _43  and  _45
REMARK   18  A    between atoms: _45  and  _46
REMARK   19  A    between atoms: _45  and  _48
REMARK   20  A    between atoms: _48  and  _49
REMARK   21  A    between atoms: _55  and  _57
REMARK   22  A    between atoms: _57  and  _58
REMARK   23  A    between atoms: _57  and  _60
REMARK   24  A    between atoms: _60  and  _61
REMARK   25  A    between atoms: _64  and  _66
REMARK   26  A    between atoms: _66  and  _67
REMARK   27  A    between atoms: _66  and  _69
REMARK   28  A    between atoms: _69  and  _70
REMARK   29  A    between atoms: _70  and  _71
REMARK   30  A    between atoms: _71  and  _72
REMARK   31  A    between atoms: _72  and  _73
REMARK   32  A    between atoms: _77  and  _79
REMARK   33  A    between atoms: _79  and  _80
REMARK   34  A    between atoms: _79  and  _82
REMARK   35  A    between atoms: _82  and  _83
REMARK   36  A    between atoms: _83  and  _84
REMARK   37  A    between atoms: _87  and  _89
REMARK   38  A    between atoms: _89  and  _90
REMARK   39  A    between atoms: _89  and  _92
REMARK   40  A    between atoms: _92  and  _93
REMARK   41  A    between atoms: _96  and  _98
REMARK   42  A    between atoms: _98  and  _99
REMARK   43  A    between atoms: _98  and  _101
REMARK   44  A    between atoms: _101  and  _102
REMARK   45  A    between atoms: _107  and  _108
REMARK   46  A    between atoms: _110  and  _112
REMARK   47  A    between atoms: _112  and  _113
REMARK   48  A    between atoms: _112  and  _115
REMARK   49  A    between atoms: _115  and  _116
REMARK   50  A    between atoms: _119  and  _121
REMARK   51  A    between atoms: _121  and  _122
REMARK   52  A    between atoms: _121  and  _124
REMARK   53  A    between atoms: _124  and  _125
REMARK   54  A    between atoms: _128  and  _130
REMARK   55  A    between atoms: _130  and  _131
REMARK   56  A    between atoms: _130  and  _133
REMARK   57  A    between atoms: _136  and  _138
REMARK   58  A    between atoms: _138  and  _139
REMARK   59  A    between atoms: _138  and  _141
REMARK   60  A    between atoms: _141  and  _142
REMARK   61  A    between atoms: _142  and  _143
REMARK   62  A    between atoms: _143  and  _144
REMARK   63  A    between atoms: _153  and  _155
REMARK   64  A    between atoms: _155  and  _156
REMARK   65  A    between atoms: _155  and  _158
REMARK   66  A    between atoms: _158  and  _159
REMARK   67  A    between atoms: _162  and  _164
REMARK   68  A    between atoms: _164  and  _165
REMARK   69  A    between atoms: _164  and  _167
REMARK   70  A    between atoms: _167  and  _168
REMARK   71  A    between atoms: _173  and  _175
REMARK   72  A    between atoms: _175  and  _176
REMARK   73  A    between atoms: _175  and  _178
REMARK   74  A    between atoms: _178  and  _179
REMARK   75  A    between atoms: _179  and  _180
REMARK   76  A    between atoms: _183  and  _185
REMARK   77  A    between atoms: _185  and  _186
REMARK   78  A    between atoms: _185  and  _188
REMARK   79  A    between atoms: _188  and  _189
REMARK   80  A    between atoms: _189  and  _190
REMARK   81  A    between atoms: _190  and  _191
REMARK   82  A    between atoms: _191  and  _192
REMARK   83  A    between atoms: _196  and  _198
REMARK   84  A    between atoms: _198  and  _199
REMARK   85  A    between atoms: _201  and  _203
REMARK   86  A    between atoms: _203  and  _204
REMARK   87  A    between atoms: _203  and  _206
REMARK   88  A    between atoms: _209  and  _211
REMARK   89  A    between atoms: _211  and  _212
REMARK   90  A    between atoms: _211  and  _214
REMARK   91  A    between atoms: _214  and  _215
REMARK   92  A    between atoms: _217  and  _219
REMARK   93  A    between atoms: _219  and  _220
REMARK   94  A    between atoms: _219  and  _222
REMARK   95  A    between atoms: _222  and  _223
REMARK   96  A    between atoms: _225  and  _227
REMARK   97  A    between atoms: _227  and  _228
REMARK   98  A    between atoms: _227  and  _230
REMARK   99  A    between atoms: _230  and  _231
REMARK  100  A    between atoms: _237  and  _239
REMARK  101  A    between atoms: _239  and  _240
REMARK  102  A    between atoms: _239  and  _242
REMARK  103  A    between atoms: _242  and  _243
REMARK  104  A    between atoms: _246  and  _248
REMARK  105  A    between atoms: _248  and  _249
REMARK  106  A    between atoms: _248  and  _251
REMARK  107  A    between atoms: _251  and  _252
REMARK  108  A    between atoms: _255  and  _257
REMARK  109  A    between atoms: _257  and  _258
REMARK  110  A    between atoms: _257  and  _260
REMARK  111  A    between atoms: _260  and  _261
REMARK  112  A    between atoms: _264  and  _266
REMARK  113  A    between atoms: _266  and  _267
REMARK  114  A    between atoms: _266  and  _269
REMARK  115  A    between atoms: _269  and  _270
REMARK  116  A    between atoms: _270  and  _271
REMARK  117  A    between atoms: _273  and  _275
REMARK  118  A    between atoms: _275  and  _276
REMARK  119  A    between atoms: _275  and  _278
REMARK  120  A    between atoms: _278  and  _279
REMARK  121  A    between atoms: _285  and  _287
REMARK  122  A    between atoms: _287  and  _288
REMARK  123  A    between atoms: _287  and  _290
REMARK  124  A    between atoms: _292  and  _294
REMARK  125  A    between atoms: _294  and  _295
REMARK  126  A    between atoms: _298  and  _300
REMARK  127  A    between atoms: _300  and  _301
REMARK  128  A    between atoms: _303  and  _305
REMARK  129  A    between atoms: _305  and  _306
REMARK  130  A    between atoms: _305  and  _308
REMARK  131  A    between atoms: _308  and  _309
REMARK  132  A    between atoms: _309  and  _310
REMARK  133  A    between atoms: _313  and  _315
REMARK  134  A    between atoms: _315  and  _316
REMARK  135  A    between atoms: _315  and  _318
REMARK  136  A    between atoms: _318  and  _319
REMARK  137  A    between atoms: _322  and  _324
REMARK  138  A    between atoms: _324  and  _325
REMARK  139  A    between atoms: _328  and  _330
REMARK  140  A    between atoms: _330  and  _331
REMARK  141  A    between atoms: _330  and  _333
REMARK  142  A    between atoms: _333  and  _334
REMARK  143  A    between atoms: _334  and  _457
REMARK  144  A    between atoms: _335  and  _337
REMARK  145  A    between atoms: _337  and  _338
REMARK  146  A    between atoms: _337  and  _340
REMARK  147  A    between atoms: _340  and  _341
REMARK  148  A    between atoms: _341  and  _342
REMARK  149  A    between atoms: _347  and  _349
REMARK  150  A    between atoms: _349  and  _350
REMARK  151  A    between atoms: _352  and  _354
REMARK  152  A    between atoms: _354  and  _355
REMARK  153  A    between atoms: _354  and  _357
REMARK  154  A    between atoms: _357  and  _358
REMARK  155  A    between atoms: _361  and  _363
REMARK  156  A    between atoms: _363  and  _364
REMARK  157  A    between atoms: _363  and  _366
REMARK  158  A    between atoms: _366  and  _367
REMARK  159  A    between atoms: _369  and  _371
REMARK  160  A    between atoms: _371  and  _372
REMARK  161  A    between atoms: _374  and  _376
REMARK  162  A    between atoms: _376  and  _377
REMARK  163  A    between atoms: _379  and  _381
REMARK  164  A    between atoms: _381  and  _382
REMARK  165  A    between atoms: _381  and  _384
REMARK  166  A    between atoms: _384  and  _385
REMARK  167  A    between atoms: _390  and  _392
REMARK  168  A    between atoms: _392  and  _393
REMARK  169  A    between atoms: _392  and  _395
REMARK  170  A    between atoms: _395  and  _396
REMARK  171  A    between atoms: _399  and  _401
REMARK  172  A    between atoms: _401  and  _402
REMARK  173  A    between atoms: _401  and  _404
REMARK  174  A    between atoms: _407  and  _409
REMARK  175  A    between atoms: _409  and  _410
REMARK  176  A    between atoms: _409  and  _412
REMARK  177  A    between atoms: _412  and  _413
REMARK  178  A    between atoms: _415  and  _417
REMARK  179  A    between atoms: _417  and  _418
REMARK  180  A    between atoms: _417  and  _420
REMARK  181  A    between atoms: _420  and  _421
REMARK  182  A    between atoms: _431  and  _433
REMARK  183  A    between atoms: _433  and  _434
REMARK  184  A    between atoms: _436  and  _438
REMARK  185  A    between atoms: _438  and  _439
REMARK  186  A    between atoms: _438  and  _441
REMARK  187  A    between atoms: _441  and  _442
REMARK  188  A    between atoms: _442  and  _443
REMARK  189  A    between atoms: _446  and  _448
REMARK  190  A    between atoms: _448  and  _449
REMARK  191  A    between atoms: _451  and  _453
REMARK  192  A    between atoms: _453  and  _454
REMARK  193  A    between atoms: _453  and  _456
REMARK  194  A    between atoms: _456  and  _457
REMARK  195  A    between atoms: _458  and  _460
REMARK  196  A    between atoms: _460  and  _461
REMARK  197  A    between atoms: _464  and  _466
REMARK  198  A    between atoms: _466  and  _467
REMARK  199  A    between atoms: _466  and  _469
REMARK  200  A    between atoms: _469  and  _470
REMARK  201  A    between atoms: _470  and  _471
REMARK  202  A    between atoms: _471  and  _472
REMARK  203  A    between atoms: _481  and  _483
REMARK  204  A    between atoms: _483  and  _484
REMARK  205  A    between atoms: _483  and  _486
REMARK  206  A    between atoms: _486  and  _487
REMARK  207  A    between atoms: _487  and  _488
REMARK  208  A    between atoms: _488  and  _489
REMARK  209  A    between atoms: _489  and  _490
REMARK  210  A    between atoms: _494  and  _496
REMARK  211  A    between atoms: _496  and  _497
REMARK  212  A    between atoms: _496  and  _499
REMARK  213  A    between atoms: _499  and  _500
REMARK  214  A    between atoms: _505  and  _506
REMARK  215  A    between atoms: _508  and  _510
REMARK  216  A    between atoms: _510  and  _511
REMARK  217  A    between atoms: _513  and  _515
REMARK  218  A    between atoms: _515  and  _516
REMARK  219  A    between atoms: _515  and  _518
REMARK  220  A    between atoms: _518  and  _519
REMARK  221  A    between atoms: _522  and  _524
REMARK  222  A    between atoms: _524  and  _525
REMARK  223  A    between atoms: _524  and  _527
REMARK  224  A    between atoms: _527  and  _528
REMARK  225  A    between atoms: _533  and  _534
REMARK  226  A    between atoms: _536  and  _538
REMARK  227  A    between atoms: _538  and  _539
REMARK  228  A    between atoms: _538  and  _541
REMARK  229  A    between atoms: _541  and  _542
REMARK                            x       y       z     vdW  Elec       q    Type
REMARK                         _______ _______ _______ _____ _____    ______ ____
ROOT
ATOM      1  O   HOH     1      13.461  63.670   1.532  0.00  0.00    +0.000 OA
ENDROOT
TORSDOF 0
REMARK  Name = ../refined-set-2016/2xbw/2xbw_pocket.pdb
REMARK  229 active torsions:
REMARK  status: ('A' for Active; 'I' for Inactive)
REMARK    1  A    between atoms: _1  and  _5
REMARK    2  A    between atoms: _5  and  _6
REMARK    3  A    between atoms: _5  and  _8
REMARK    4  A    between atoms: _8  and  _9
REMARK    5  A    between atoms: _12  and  _14
REMARK    6  A    between atoms: _14  and  _15
REMARK    7  A    between atoms: _14  and  _17
REMARK    8  A    between atoms: _20  and  _22
REMARK    9  A    between atoms: _22  and  _23
REMARK   10  A    between atoms: _22  and  _25
REMARK   11  A    between atoms: _25  and  _26
REMARK   12  A    between atoms: _31  and  _33
REMARK   13  A    between atoms: _33  and  _34
REMARK   14  A    between atoms: _33  and  _36
REMARK   15  A    between atoms: _36  and  _37
REMARK   16  A    between atoms: _37  and  _38
REMARK   17  A    between atoms: _43  and  _45
REMARK   18  A    between atoms: _45  and  _46
REMARK   19  A    between atoms: _45  and  _48
REMARK   20  A    between atoms: _48  and  _49
REMARK   21  A    between atoms: _55  and  _57
REMARK   22  A    between atoms: _57  and  _58
REMARK   23  A    between atoms: _57  and  _60
REMARK   24  A    between atoms: _60  and  _61
REMARK   25  A    between atoms: _64  and  _66
REMARK   26  A    between atoms: _66  and  _67
REMARK   27  A    between atoms: _66  and  _69
REMARK   28  A    between atoms: _69  and  _70
REMARK   29  A    between atoms: _70  and  _71
REMARK   30  A    between atoms: _71  and  _72
REMARK   31  A    between atoms: _72  and  _73
REMARK   32  A    between atoms: _77  and  _79
REMARK   33  A    between atoms: _79  and  _80
REMARK   34  A    between atoms: _79  and  _82
REMARK   35  A    between atoms: _82  and  _83
REMARK   36  A    between atoms: _83  and  _84
REMARK   37  A    between atoms: _87  and  _89
REMARK   38  A    between atoms: _89  and  _90
REMARK   39  A    between atoms: _89  and  _92
REMARK   40  A    between atoms: _92  and  _93
REMARK   41  A    between atoms: _96  and  _98
REMARK   42  A    between atoms: _98  and  _99
REMARK   43  A    between atoms: _98  and  _101
REMARK   44  A    between atoms: _101  and  _102
REMARK   45  A    between atoms: _107  and  _108
REMARK   46  A    between atoms: _110  and  _112
REMARK   47  A    between atoms: _112  and  _113
REMARK   48  A    between atoms: _112  and  _115
REMARK   49  A    between atoms: _115  and  _116
REMARK   50  A    between atoms: _119  and  _121
REMARK   51  A    between atoms: _121  and  _122
REMARK   52  A    between atoms: _121  and  _124
REMARK   53  A    between atoms: _124  and  _125
REMARK   54  A    between atoms: _128  and  _130
REMARK   55  A    between atoms: _130  and  _131
REMARK   56  A    between atoms: _130  and  _133
REMARK   57  A    between atoms: _136  and  _138
REMARK   58  A    between atoms: _138  and  _139
REMARK   59  A    between atoms: _138  and  _141
REMARK   60  A    between atoms: _141  and  _142
REMARK   61  A    between atoms: _142  and  _143
REMARK   62  A    between atoms: _143  and  _144
REMARK   63  A    between atoms: _153  and  _155
REMARK   64  A    between atoms: _155  and  _156
REMARK   65  A    between atoms: _155  and  _158
REMARK   66  A    between atoms: _158  and  _159
REMARK   67  A    between atoms: _162  and  _164
REMARK   68  A    between atoms: _164  and  _165
REMARK   69  A    between atoms: _164  and  _167
REMARK   70  A    between atoms: _167  and  _168
REMARK   71  A    between atoms: _173  and  _175
REMARK   72  A    between atoms: _175  and  _176
REMARK   73  A    between atoms: _175  and  _178
REMARK   74  A    between atoms: _178  and  _179
REMARK   75  A    between atoms: _179  and  _180
REMARK   76  A    between atoms: _183  and  _185
REMARK   77  A    between atoms: _185  and  _186
REMARK   78  A    between atoms: _185  and  _188
REMARK   79  A    between atoms: _188  and  _189
REMARK   80  A    between atoms: _189  and  _190
REMARK   81  A    between atoms: _190  and  _191
REMARK   82  A    between atoms: _191  and  _192
REMARK   83  A    between atoms: _196  and  _198
REMARK   84  A    between atoms: _198  and  _199
REMARK   85  A    between atoms: _201  and  _203
REMARK   86  A    between atoms: _203  and  _204
REMARK   87  A    between atoms: _203  and  _206
REMARK   88  A    between atoms: _209  and  _211
REMARK   89  A    between atoms: _211  and  _212
REMARK   90  A    between atoms: _211  and  _214
REMARK   91  A    between atoms: _214  and  _215
REMARK   92  A    between atoms: _217  and  _219
REMARK   93  A    between atoms: _219  and  _220
REMARK   94  A    between atoms: _219  and  _222
REMARK   95  A    between atoms: _222  and  _223
REMARK   96  A    between atoms: _225  and  _227
REMARK   97  A    between atoms: _227  and  _228
REMARK   98  A    between atoms: _227  and  _230
REMARK   99  A    between atoms: _230  and  _231
REMARK  100  A    between atoms: _237  and  _239
REMARK  101  A    between atoms: _239  and  _240
REMARK  102  A    between atoms: _239  and  _242
REMARK  103  A    between atoms: _242  and  _243
REMARK  104  A    between atoms: _246  and  _248
REMARK  105  A    between atoms: _248  and  _249
REMARK  106  A    between atoms: _248  and  _251
REMARK  107  A    between atoms: _251  and  _252
REMARK  108  A    between atoms: _255  and  _257
REMARK  109  A    between atoms: _257  and  _258
REMARK  110  A    between atoms: _257  and  _260
REMARK  111  A    between atoms: _260  and  _261
REMARK  112  A    between atoms: _264  and  _266
REMARK  113  A    between atoms: _266  and  _267
REMARK  114  A    between atoms: _266  and  _269
REMARK  115  A    between atoms: _269  and  _270
REMARK  116  A    between atoms: _270  and  _271
REMARK  117  A    between atoms: _273  and  _275
REMARK  118  A    between atoms: _275  and  _276
REMARK  119  A    between atoms: _275  and  _278
REMARK  120  A    between atoms: _278  and  _279
REMARK  121  A    between atoms: _285  and  _287
REMARK  122  A    between atoms: _287  and  _288
REMARK  123  A    between atoms: _287  and  _290
REMARK  124  A    between atoms: _292  and  _294
REMARK  125  A    between atoms: _294  and  _295
REMARK  126  A    between atoms: _298  and  _300
REMARK  127  A    between atoms: _300  and  _301
REMARK  128  A    between atoms: _303  and  _305
REMARK  129  A    between atoms: _305  and  _306
REMARK  130  A    between atoms: _305  and  _308
REMARK  131  A    between atoms: _308  and  _309
REMARK  132  A    between atoms: _309  and  _310
REMARK  133  A    between atoms: _313  and  _315
REMARK  134  A    between atoms: _315  and  _316
REMARK  135  A    between atoms: _315  and  _318
REMARK  136  A    between atoms: _318  and  _319
REMARK  137  A    between atoms: _322  and  _324
REMARK  138  A    between atoms: _324  and  _325
REMARK  139  A    between atoms: _328  and  _330
REMARK  140  A    between atoms: _330  and  _331
REMARK  141  A    between atoms: _330  and  _333
REMARK  142  A    between atoms: _333  and  _334
REMARK  143  A    between atoms: _334  and  _457
REMARK  144  A    between atoms: _335  and  _337
REMARK  145  A    between atoms: _337  and  _338
REMARK  146  A    between atoms: _337  and  _340
REMARK  147  A    between atoms: _340  and  _341
REMARK  148  A    between atoms: _341  and  _342
REMARK  149  A    between atoms: _347  and  _349
REMARK  150  A    between atoms: _349  and  _350
REMARK  151  A    between atoms: _352  and  _354
REMARK  152  A    between atoms: _354  and  _355
REMARK  153  A    between atoms: _354  and  _357
REMARK  154  A    between atoms: _357  and  _358
REMARK  155  A    between atoms: _361  and  _363
REMARK  156  A    between atoms: _363  and  _364
REMARK  157  A    between atoms: _363  and  _366
REMARK  158  A    between atoms: _366  and  _367
REMARK  159  A    between atoms: _369  and  _371
REMARK  160  A    between atoms: _371  and  _372
REMARK  161  A    between atoms: _374  and  _376
REMARK  162  A    between atoms: _376  and  _377
REMARK  163  A    between atoms: _379  and  _381
REMARK  164  A    between atoms: _381  and  _382
REMARK  165  A    between atoms: _381  and  _384
REMARK  166  A    between atoms: _384  and  _385
REMARK  167  A    between atoms: _390  and  _392
REMARK  168  A    between atoms: _392  and  _393
REMARK  169  A    between atoms: _392  and  _395
REMARK  170  A    between atoms: _395  and  _396
REMARK  171  A    between atoms: _399  and  _401
REMARK  172  A    between atoms: _401  and  _402
REMARK  173  A    between atoms: _401  and  _404
REMARK  174  A    between atoms: _407  and  _409
REMARK  175  A    between atoms: _409  and  _410
REMARK  176  A    between atoms: _409  and  _412
REMARK  177  A    between atoms: _412  and  _413
REMARK  178  A    between atoms: _415  and  _417
REMARK  179  A    between atoms: _417  and  _418
REMARK  180  A    between atoms: _417  and  _420
REMARK  181  A    between atoms: _420  and  _421
REMARK  182  A    between atoms: _431  and  _433
REMARK  183  A    between atoms: _433  and  _434
REMARK  184  A    between atoms: _436  and  _438
REMARK  185  A    between atoms: _438  and  _439
REMARK  186  A    between atoms: _438  and  _441
REMARK  187  A    between atoms: _441  and  _442
REMARK  188  A    between atoms: _442  and  _443
REMARK  189  A    between atoms: _446  and  _448
REMARK  190  A    between atoms: _448  and  _449
REMARK  191  A    between atoms: _451  and  _453
REMARK  192  A    between atoms: _453  and  _454
REMARK  193  A    between atoms: _453  and  _456
REMARK  194  A    between atoms: _456  and  _457
REMARK  195  A    between atoms: _458  and  _460
REMARK  196  A    between atoms: _460  and  _461
REMARK  197  A    between atoms: _464  and  _466
REMARK  198  A    between atoms: _466  and  _467
REMARK  199  A    between atoms: _466  and  _469
REMARK  200  A    between atoms: _469  and  _470
REMARK  201  A    between atoms: _470  and  _471
REMARK  202  A    between atoms: _471  and  _472
REMARK  203  A    between atoms: _481  and  _483
REMARK  204  A    between atoms: _483  and  _484
REMARK  205  A    between atoms: _483  and  _486
REMARK  206  A    between atoms: _486  and  _487
REMARK  207  A    between atoms: _487  and  _488
REMARK  208  A    between atoms: _488  and  _489
REMARK  209  A    between atoms: _489  and  _490
REMARK  210  A    between atoms: _494  and  _496
REMARK  211  A    between atoms: _496  and  _497
REMARK  212  A    between atoms: _496  and  _499
REMARK  213  A    between atoms: _499  and  _500
REMARK  214  A    between atoms: _505  and  _506
REMARK  215  A    between atoms: _508  and  _510
REMARK  216  A    between atoms: _510  and  _511
REMARK  217  A    between atoms: _513  and  _515
REMARK  218  A    between atoms: _515  and  _516
REMARK  219  A    between atoms: _515  and  _518
REMARK  220  A    between atoms: _518  and  _519
REMARK  221  A    between atoms: _522  and  _524
REMARK  222  A    between atoms: _524  and  _525
REMARK  223  A    between atoms: _524  and  _527
REMARK  224  A    between atoms: _527  and  _528
REMARK  225  A    between atoms: _533  and  _534
REMARK  226  A    between atoms: _536  and  _538
REMARK  227  A    between atoms: _538  and  _539
REMARK  228  A    between atoms: _538  and  _541
REMARK  229  A    between atoms: _541  and  _542
REMARK                            x       y       z     vdW  Elec       q    Type
REMARK                         _______ _______ _______ _____ _____    ______ ____
ROOT
ATOM      1  O   HOH     1      10.604  66.866  11.447  0.00  0.00    +0.000 OA
ENDROOT
TORSDOF 0
REMARK  Name = ../refined-set-2016/2xbw/2xbw_pocket.pdb
REMARK  229 active torsions:
REMARK  status: ('A' for Active; 'I' for Inactive)
REMARK    1  A    between atoms: _1  and  _5
REMARK    2  A    between atoms: _5  and  _6
REMARK    3  A    between atoms: _5  and  _8
REMARK    4  A    between atoms: _8  and  _9
REMARK    5  A    between atoms: _12  and  _14
REMARK    6  A    between atoms: _14  and  _15
REMARK    7  A    between atoms: _14  and  _17
REMARK    8  A    between atoms: _20  and  _22
REMARK    9  A    between atoms: _22  and  _23
REMARK   10  A    between atoms: _22  and  _25
REMARK   11  A    between atoms: _25  and  _26
REMARK   12  A    between atoms: _31  and  _33
REMARK   13  A    between atoms: _33  and  _34
REMARK   14  A    between atoms: _33  and  _36
REMARK   15  A    between atoms: _36  and  _37
REMARK   16  A    between atoms: _37  and  _38
REMARK   17  A    between atoms: _43  and  _45
REMARK   18  A    between atoms: _45  and  _46
REMARK   19  A    between atoms: _45  and  _48
REMARK   20  A    between atoms: _48  and  _49
REMARK   21  A    between atoms: _55  and  _57
REMARK   22  A    between atoms: _57  and  _58
REMARK   23  A    between atoms: _57  and  _60
REMARK   24  A    between atoms: _60  and  _61
REMARK   25  A    between atoms: _64  and  _66
REMARK   26  A    between atoms: _66  and  _67
REMARK   27  A    between atoms: _66  and  _69
REMARK   28  A    between atoms: _69  and  _70
REMARK   29  A    between atoms: _70  and  _71
REMARK   30  A    between atoms: _71  and  _72
REMARK   31  A    between atoms: _72  and  _73
REMARK   32  A    between atoms: _77  and  _79
REMARK   33  A    between atoms: _79  and  _80
REMARK   34  A    between atoms: _79  and  _82
REMARK   35  A    between atoms: _82  and  _83
REMARK   36  A    between atoms: _83  and  _84
REMARK   37  A    between atoms: _87  and  _89
REMARK   38  A    between atoms: _89  and  _90
REMARK   39  A    between atoms: _89  and  _92
REMARK   40  A    between atoms: _92  and  _93
REMARK   41  A    between atoms: _96  and  _98
REMARK   42  A    between atoms: _98  and  _99
REMARK   43  A    between atoms: _98  and  _101
REMARK   44  A    between atoms: _101  and  _102
REMARK   45  A    between atoms: _107  and  _108
REMARK   46  A    between atoms: _110  and  _112
REMARK   47  A    between atoms: _112  and  _113
REMARK   48  A    between atoms: _112  and  _115
REMARK   49  A    between atoms: _115  and  _116
REMARK   50  A    between atoms: _119  and  _121
REMARK   51  A    between atoms: _121  and  _122
REMARK   52  A    between atoms: _121  and  _124
REMARK   53  A    between atoms: _124  and  _125
REMARK   54  A    between atoms: _128  and  _130
REMARK   55  A    between atoms: _130  and  _131
REMARK   56  A    between atoms: _130  and  _133
REMARK   57  A    between atoms: _136  and  _138
REMARK   58  A    between atoms: _138  and  _139
REMARK   59  A    between atoms: _138  and  _141
REMARK   60  A    between atoms: _141  and  _142
REMARK   61  A    between atoms: _142  and  _143
REMARK   62  A    between atoms: _143  and  _144
REMARK   63  A    between atoms: _153  and  _155
REMARK   64  A    between atoms: _155  and  _156
REMARK   65  A    between atoms: _155  and  _158
REMARK   66  A    between atoms: _158  and  _159
REMARK   67  A    between atoms: _162  and  _164
REMARK   68  A    between atoms: _164  and  _165
REMARK   69  A    between atoms: _164  and  _167
REMARK   70  A    between atoms: _167  and  _168
REMARK   71  A    between atoms: _173  and  _175
REMARK   72  A    between atoms: _175  and  _176
REMARK   73  A    between atoms: _175  and  _178
REMARK   74  A    between atoms: _178  and  _179
REMARK   75  A    between atoms: _179  and  _180
REMARK   76  A    between atoms: _183  and  _185
REMARK   77  A    between atoms: _185  and  _186
REMARK   78  A    between atoms: _185  and  _188
REMARK   79  A    between atoms: _188  and  _189
REMARK   80  A    between atoms: _189  and  _190
REMARK   81  A    between atoms: _190  and  _191
REMARK   82  A    between atoms: _191  and  _192
REMARK   83  A    between atoms: _196  and  _198
REMARK   84  A    between atoms: _198  and  _199
REMARK   85  A    between atoms: _201  and  _203
REMARK   86  A    between atoms: _203  and  _204
REMARK   87  A    between atoms: _203  and  _206
REMARK   88  A    between atoms: _209  and  _211
REMARK   89  A    between atoms: _211  and  _212
REMARK   90  A    between atoms: _211  and  _214
REMARK   91  A    between atoms: _214  and  _215
REMARK   92  A    between atoms: _217  and  _219
REMARK   93  A    between atoms: _219  and  _220
REMARK   94  A    between atoms: _219  and  _222
REMARK   95  A    between atoms: _222  and  _223
REMARK   96  A    between atoms: _225  and  _227
REMARK   97  A    between atoms: _227  and  _228
REMARK   98  A    between atoms: _227  and  _230
REMARK   99  A    between atoms: _230  and  _231
REMARK  100  A    between atoms: _237  and  _239
REMARK  101  A    between atoms: _239  and  _240
REMARK  102  A    between atoms: _239  and  _242
REMARK  103  A    between atoms: _242  and  _243
REMARK  104  A    between atoms: _246  and  _248
REMARK  105  A    between atoms: _248  and  _249
REMARK  106  A    between atoms: _248  and  _251
REMARK  107  A    between atoms: _251  and  _252
REMARK  108  A    between atoms: _255  and  _257
REMARK  109  A    between atoms: _257  and  _258
REMARK  110  A    between atoms: _257  and  _260
REMARK  111  A    between atoms: _260  and  _261
REMARK  112  A    between atoms: _264  and  _266
REMARK  113  A    between atoms: _266  and  _267
REMARK  114  A    between atoms: _266  and  _269
REMARK  115  A    between atoms: _269  and  _270
REMARK  116  A    between atoms: _270  and  _271
REMARK  117  A    between atoms: _273  and  _275
REMARK  118  A    between atoms: _275  and  _276
REMARK  119  A    between atoms: _275  and  _278
REMARK  120  A    between atoms: _278  and  _279
REMARK  121  A    between atoms: _285  and  _287
REMARK  122  A    between atoms: _287  and  _288
REMARK  123  A    between atoms: _287  and  _290
REMARK  124  A    between atoms: _292  and  _294
REMARK  125  A    between atoms: _294  and  _295
REMARK  126  A    between atoms: _298  and  _300
REMARK  127  A    between atoms: _300  and  _301
REMARK  128  A    between atoms: _303  and  _305
REMARK  129  A    between atoms: _305  and  _306
REMARK  130  A    between atoms: _305  and  _308
REMARK  131  A    between atoms: _308  and  _309
REMARK  132  A    between atoms: _309  and  _310
REMARK  133  A    between atoms: _313  and  _315
REMARK  134  A    between atoms: _315  and  _316
REMARK  135  A    between atoms: _315  and  _318
REMARK  136  A    between atoms: _318  and  _319
REMARK  137  A    between atoms: _322  and  _324
REMARK  138  A    between atoms: _324  and  _325
REMARK  139  A    between atoms: _328  and  _330
REMARK  140  A    between atoms: _330  and  _331
REMARK  141  A    between atoms: _330  and  _333
REMARK  142  A    between atoms: _333  and  _334
REMARK  143  A    between atoms: _334  and  _457
REMARK  144  A    between atoms: _335  and  _337
REMARK  145  A    between atoms: _337  and  _338
REMARK  146  A    between atoms: _337  and  _340
REMARK  147  A    between atoms: _340  and  _341
REMARK  148  A    between atoms: _341  and  _342
REMARK  149  A    between atoms: _347  and  _349
REMARK  150  A    between atoms: _349  and  _350
REMARK  151  A    between atoms: _352  and  _354
REMARK  152  A    between atoms: _354  and  _355
REMARK  153  A    between atoms: _354  and  _357
REMARK  154  A    between atoms: _357  and  _358
REMARK  155  A    between atoms: _361  and  _363
REMARK  156  A    between atoms: _363  and  _364
REMARK  157  A    between atoms: _363  and  _366
REMARK  158  A    between atoms: _366  and  _367
REMARK  159  A    between atoms: _369  and  _371
REMARK  160  A    between atoms: _371  and  _372
REMARK  161  A    between atoms: _374  and  _376
REMARK  162  A    between atoms: _376  and  _377
REMARK  163  A    between atoms: _379  and  _381
REMARK  164  A    between atoms: _381  and  _382
REMARK  165  A    between atoms: _381  and  _384
REMARK  166  A    between atoms: _384  and  _385
REMARK  167  A    between atoms: _390  and  _392
REMARK  168  A    between atoms: _392  and  _393
REMARK  169  A    between atoms: _392  and  _395
REMARK  170  A    between atoms: _395  and  _396
REMARK  171  A    between atoms: _399  and  _401
REMARK  172  A    between atoms: _401  and  _402
REMARK  173  A    between atoms: _401  and  _404
REMARK  174  A    between atoms: _407  and  _409
REMARK  175  A    between atoms: _409  and  _410
REMARK  176  A    between atoms: _409  and  _412
REMARK  177  A    between atoms: _412  and  _413
REMARK  178  A    between atoms: _415  and  _417
REMARK  179  A    between atoms: _417  and  _418
REMARK  180  A    between atoms: _417  and  _420
REMARK  181  A    between atoms: _420  and  _421
REMARK  182  A    between atoms: _431  and  _433
REMARK  183  A    between atoms: _433  and  _434
REMARK  184  A    between atoms: _436  and  _438
REMARK  185  A    between atoms: _438  and  _439
REMARK  186  A    between atoms: _438  and  _441
REMARK  187  A    between atoms: _441  and  _442
REMARK  188  A    between atoms: _442  and  _443
REMARK  189  A    between atoms: _446  and  _448
REMARK  190  A    between atoms: _448  and  _449
REMARK  191  A    between atoms: _451  and  _453
REMARK  192  A    between atoms: _453  and  _454
REMARK  193  A    between atoms: _453  and  _456
REMARK  194  A    between atoms: _456  and  _457
REMARK  195  A    between atoms: _458  and  _460
REMARK  196  A    between atoms: _460  and  _461
REMARK  197  A    between atoms: _464  and  _466
REMARK  198  A    between atoms: _466  and  _467
REMARK  199  A    between atoms: _466  and  _469
REMARK  200  A    between atoms: _469  and  _470
REMARK  201  A    between atoms: _470  and  _471
REMARK  202  A    between atoms: _471  and  _472
REMARK  203  A    between atoms: _481  and  _483
REMARK  204  A    between atoms: _483  and  _484
REMARK  205  A    between atoms: _483  and  _486
REMARK  206  A    between atoms: _486  and  _487
REMARK  207  A    between atoms: _487  and  _488
REMARK  208  A    between atoms: _488  and  _489
REMARK  209  A    between atoms: _489  and  _490
REMARK  210  A    between atoms: _494  and  _496
REMARK  211  A    between atoms: _496  and  _497
REMARK  212  A    between atoms: _496  and  _499
REMARK  213  A    between atoms: _499  and  _500
REMARK  214  A    between atoms: _505  and  _506
REMARK  215  A    between atoms: _508  and  _510
REMARK  216  A    between atoms: _510  and  _511
REMARK  217  A    between atoms: _513  and  _515
REMARK  218  A    between atoms: _515  and  _516
REMARK  219  A    between atoms: _515  and  _518
REMARK  220  A    between atoms: _518  and  _519
REMARK  221  A    between atoms: _522  and  _524
REMARK  222  A    between atoms: _524  and  _525
REMARK  223  A    between atoms: _524  and  _527
REMARK  224  A    between atoms: _527  and  _528
REMARK  225  A    between atoms: _533  and  _534
REMARK  226  A    between atoms: _536  and  _538
REMARK  227  A    between atoms: _538  and  _539
REMARK  228  A    between atoms: _538  and  _541
REMARK  229  A    between atoms: _541  and  _542
REMARK                            x       y       z     vdW  Elec       q    Type
REMARK                         _______ _______ _______ _____ _____    ______ ____
ROOT
ATOM      1  O   HOH     1       8.155  59.960  11.178  0.00  0.00    +0.000 OA
ENDROOT
TORSDOF 0
REMARK  Name = ../refined-set-2016/2xbw/2xbw_pocket.pdb
REMARK  229 active torsions:
REMARK  status: ('A' for Active; 'I' for Inactive)
REMARK    1  A    between atoms: _1  and  _5
REMARK    2  A    between atoms: _5  and  _6
REMARK    3  A    between atoms: _5  and  _8
REMARK    4  A    between atoms: _8  and  _9
REMARK    5  A    between atoms: _12  and  _14
REMARK    6  A    between atoms: _14  and  _15
REMARK    7  A    between atoms: _14  and  _17
REMARK    8  A    between atoms: _20  and  _22
REMARK    9  A    between atoms: _22  and  _23
REMARK   10  A    between atoms: _22  and  _25
REMARK   11  A    between atoms: _25  and  _26
REMARK   12  A    between atoms: _31  and  _33
REMARK   13  A    between atoms: _33  and  _34
REMARK   14  A    between atoms: _33  and  _36
REMARK   15  A    between atoms: _36  and  _37
REMARK   16  A    between atoms: _37  and  _38
REMARK   17  A    between atoms: _43  and  _45
REMARK   18  A    between atoms: _45  and  _46
REMARK   19  A    between atoms: _45  and  _48
REMARK   20  A    between atoms: _48  and  _49
REMARK   21  A    between atoms: _55  and  _57
REMARK   22  A    between atoms: _57  and  _58
REMARK   23  A    between atoms: _57  and  _60
REMARK   24  A    between atoms: _60  and  _61
REMARK   25  A    between atoms: _64  and  _66
REMARK   26  A    between atoms: _66  and  _67
REMARK   27  A    between atoms: _66  and  _69
REMARK   28  A    between atoms: _69  and  _70
REMARK   29  A    between atoms: _70  and  _71
REMARK   30  A    between atoms: _71  and  _72
REMARK   31  A    between atoms: _72  and  _73
REMARK   32  A    between atoms: _77  and  _79
REMARK   33  A    between atoms: _79  and  _80
REMARK   34  A    between atoms: _79  and  _82
REMARK   35  A    between atoms: _82  and  _83
REMARK   36  A    between atoms: _83  and  _84
REMARK   37  A    between atoms: _87  and  _89
REMARK   38  A    between atoms: _89  and  _90
REMARK   39  A    between atoms: _89  and  _92
REMARK   40  A    between atoms: _92  and  _93
REMARK   41  A    between atoms: _96  and  _98
REMARK   42  A    between atoms: _98  and  _99
REMARK   43  A    between atoms: _98  and  _101
REMARK   44  A    between atoms: _101  and  _102
REMARK   45  A    between atoms: _107  and  _108
REMARK   46  A    between atoms: _110  and  _112
REMARK   47  A    between atoms: _112  and  _113
REMARK   48  A    between atoms: _112  and  _115
REMARK   49  A    between atoms: _115  and  _116
REMARK   50  A    between atoms: _119  and  _121
REMARK   51  A    between atoms: _121  and  _122
REMARK   52  A    between atoms: _121  and  _124
REMARK   53  A    between atoms: _124  and  _125
REMARK   54  A    between atoms: _128  and  _130
REMARK   55  A    between atoms: _130  and  _131
REMARK   56  A    between atoms: _130  and  _133
REMARK   57  A    between atoms: _136  and  _138
REMARK   58  A    between atoms: _138  and  _139
REMARK   59  A    between atoms: _138  and  _141
REMARK   60  A    between atoms: _141  and  _142
REMARK   61  A    between atoms: _142  and  _143
REMARK   62  A    between atoms: _143  and  _144
REMARK   63  A    between atoms: _153  and  _155
REMARK   64  A    between atoms: _155  and  _156
REMARK   65  A    between atoms: _155  and  _158
REMARK   66  A    between atoms: _158  and  _159
REMARK   67  A    between atoms: _162  and  _164
REMARK   68  A    between atoms: _164  and  _165
REMARK   69  A    between atoms: _164  and  _167
REMARK   70  A    between atoms: _167  and  _168
REMARK   71  A    between atoms: _173  and  _175
REMARK   72  A    between atoms: _175  and  _176
REMARK   73  A    between atoms: _175  and  _178
REMARK   74  A    between atoms: _178  and  _179
REMARK   75  A    between atoms: _179  and  _180
REMARK   76  A    between atoms: _183  and  _185
REMARK   77  A    between atoms: _185  and  _186
REMARK   78  A    between atoms: _185  and  _188
REMARK   79  A    between atoms: _188  and  _189
REMARK   80  A    between atoms: _189  and  _190
REMARK   81  A    between atoms: _190  and  _191
REMARK   82  A    between atoms: _191  and  _192
REMARK   83  A    between atoms: _196  and  _198
REMARK   84  A    between atoms: _198  and  _199
REMARK   85  A    between atoms: _201  and  _203
REMARK   86  A    between atoms: _203  and  _204
REMARK   87  A    between atoms: _203  and  _206
REMARK   88  A    between atoms: _209  and  _211
REMARK   89  A    between atoms: _211  and  _212
REMARK   90  A    between atoms: _211  and  _214
REMARK   91  A    between atoms: _214  and  _215
REMARK   92  A    between atoms: _217  and  _219
REMARK   93  A    between atoms: _219  and  _220
REMARK   94  A    between atoms: _219  and  _222
REMARK   95  A    between atoms: _222  and  _223
REMARK   96  A    between atoms: _225  and  _227
REMARK   97  A    between atoms: _227  and  _228
REMARK   98  A    between atoms: _227  and  _230
REMARK   99  A    between atoms: _230  and  _231
REMARK  100  A    between atoms: _237  and  _239
REMARK  101  A    between atoms: _239  and  _240
REMARK  102  A    between atoms: _239  and  _242
REMARK  103  A    between atoms: _242  and  _243
REMARK  104  A    between atoms: _246  and  _248
REMARK  105  A    between atoms: _248  and  _249
REMARK  106  A    between atoms: _248  and  _251
REMARK  107  A    between atoms: _251  and  _252
REMARK  108  A    between atoms: _255  and  _257
REMARK  109  A    between atoms: _257  and  _258
REMARK  110  A    between atoms: _257  and  _260
REMARK  111  A    between atoms: _260  and  _261
REMARK  112  A    between atoms: _264  and  _266
REMARK  113  A    between atoms: _266  and  _267
REMARK  114  A    between atoms: _266  and  _269
REMARK  115  A    between atoms: _269  and  _270
REMARK  116  A    between atoms: _270  and  _271
REMARK  117  A    between atoms: _273  and  _275
REMARK  118  A    between atoms: _275  and  _276
REMARK  119  A    between atoms: _275  and  _278
REMARK  120  A    between atoms: _278  and  _279
REMARK  121  A    between atoms: _285  and  _287
REMARK  122  A    between atoms: _287  and  _288
REMARK  123  A    between atoms: _287  and  _290
REMARK  124  A    between atoms: _292  and  _294
REMARK  125  A    between atoms: _294  and  _295
REMARK  126  A    between atoms: _298  and  _300
REMARK  127  A    between atoms: _300  and  _301
REMARK  128  A    between atoms: _303  and  _305
REMARK  129  A    between atoms: _305  and  _306
REMARK  130  A    between atoms: _305  and  _308
REMARK  131  A    between atoms: _308  and  _309
REMARK  132  A    between atoms: _309  and  _310
REMARK  133  A    between atoms: _313  and  _315
REMARK  134  A    between atoms: _315  and  _316
REMARK  135  A    between atoms: _315  and  _318
REMARK  136  A    between atoms: _318  and  _319
REMARK  137  A    between atoms: _322  and  _324
REMARK  138  A    between atoms: _324  and  _325
REMARK  139  A    between atoms: _328  and  _330
REMARK  140  A    between atoms: _330  and  _331
REMARK  141  A    between atoms: _330  and  _333
REMARK  142  A    between atoms: _333  and  _334
REMARK  143  A    between atoms: _334  and  _457
REMARK  144  A    between atoms: _335  and  _337
REMARK  145  A    between atoms: _337  and  _338
REMARK  146  A    between atoms: _337  and  _340
REMARK  147  A    between atoms: _340  and  _341
REMARK  148  A    between atoms: _341  and  _342
REMARK  149  A    between atoms: _347  and  _349
REMARK  150  A    between atoms: _349  and  _350
REMARK  151  A    between atoms: _352  and  _354
REMARK  152  A    between atoms: _354  and  _355
REMARK  153  A    between atoms: _354  and  _357
REMARK  154  A    between atoms: _357  and  _358
REMARK  155  A    between atoms: _361  and  _363
REMARK  156  A    between atoms: _363  and  _364
REMARK  157  A    between atoms: _363  and  _366
REMARK  158  A    between atoms: _366  and  _367
REMARK  159  A    between atoms: _369  and  _371
REMARK  160  A    between atoms: _371  and  _372
REMARK  161  A    between atoms: _374  and  _376
REMARK  162  A    between atoms: _376  and  _377
REMARK  163  A    between atoms: _379  and  _381
REMARK  164  A    between atoms: _381  and  _382
REMARK  165  A    between atoms: _381  and  _384
REMARK  166  A    between atoms: _384  and  _385
REMARK  167  A    between atoms: _390  and  _392
REMARK  168  A    between atoms: _392  and  _393
REMARK  169  A    between atoms: _392  and  _395
REMARK  170  A    between atoms: _395  and  _396
REMARK  171  A    between atoms: _399  and  _401
REMARK  172  A    between atoms: _401  and  _402
REMARK  173  A    between atoms: _401  and  _404
REMARK  174  A    between atoms: _407  and  _409
REMARK  175  A    between atoms: _409  and  _410
REMARK  176  A    between atoms: _409  and  _412
REMARK  177  A    between atoms: _412  and  _413
REMARK  178  A    between atoms: _415  and  _417
REMARK  179  A    between atoms: _417  and  _418
REMARK  180  A    between atoms: _417  and  _420
REMARK  181  A    between atoms: _420  and  _421
REMARK  182  A    between atoms: _431  and  _433
REMARK  183  A    between atoms: _433  and  _434
REMARK  184  A    between atoms: _436  and  _438
REMARK  185  A    between atoms: _438  and  _439
REMARK  186  A    between atoms: _438  and  _441
REMARK  187  A    between atoms: _441  and  _442
REMARK  188  A    between atoms: _442  and  _443
REMARK  189  A    between atoms: _446  and  _448
REMARK  190  A    between atoms: _448  and  _449
REMARK  191  A    between atoms: _451  and  _453
REMARK  192  A    between atoms: _453  and  _454
REMARK  193  A    between atoms: _453  and  _456
REMARK  194  A    between atoms: _456  and  _457
REMARK  195  A    between atoms: _458  and  _460
REMARK  196  A    between atoms: _460  and  _461
REMARK  197  A    between atoms: _464  and  _466
REMARK  198  A    between atoms: _466  and  _467
REMARK  199  A    between atoms: _466  and  _469
REMARK  200  A    between atoms: _469  and  _470
REMARK  201  A    between atoms: _470  and  _471
REMARK  202  A    between atoms: _471  and  _472
REMARK  203  A    between atoms: _481  and  _483
REMARK  204  A    between atoms: _483  and  _484
REMARK  205  A    between atoms: _483  and  _486
REMARK  206  A    between atoms: _486  and  _487
REMARK  207  A    between atoms: _487  and  _488
REMARK  208  A    between atoms: _488  and  _489
REMARK  209  A    between atoms: _489  and  _490
REMARK  210  A    between atoms: _494  and  _496
REMARK  211  A    between atoms: _496  and  _497
REMARK  212  A    between atoms: _496  and  _499
REMARK  213  A    between atoms: _499  and  _500
REMARK  214  A    between atoms: _505  and  _506
REMARK  215  A    between atoms: _508  and  _510
REMARK  216  A    between atoms: _510  and  _511
REMARK  217  A    between atoms: _513  and  _515
REMARK  218  A    between atoms: _515  and  _516
REMARK  219  A    between atoms: _515  and  _518
REMARK  220  A    between atoms: _518  and  _519
REMARK  221  A    between atoms: _522  and  _524
REMARK  222  A    between atoms: _524  and  _525
REMARK  223  A    between atoms: _524  and  _527
REMARK  224  A    between atoms: _527  and  _528
REMARK  225  A    between atoms: _533  and  _534
REMARK  226  A    between atoms: _536  and  _538
REMARK  227  A    between atoms: _538  and  _539
REMARK  228  A    between atoms: _538  and  _541
REMARK  229  A    between atoms: _541  and  _542
REMARK                            x       y       z     vdW  Elec       q    Type
REMARK                         _______ _______ _______ _____ _____    ______ ____
ROOT
ATOM      1  O   HOH     1       5.218  69.314   5.310  0.00  0.00    +0.000 OA
ENDROOT
TORSDOF 0
REMARK  Name = ../refined-set-2016/2xbw/2xbw_pocket.pdb
REMARK  229 active torsions:
REMARK  status: ('A' for Active; 'I' for Inactive)
REMARK    1  A    between atoms: _1  and  _5
REMARK    2  A    between atoms: _5  and  _6
REMARK    3  A    between atoms: _5  and  _8
REMARK    4  A    between atoms: _8  and  _9
REMARK    5  A    between atoms: _12  and  _14
REMARK    6  A    between atoms: _14  and  _15
REMARK    7  A    between atoms: _14  and  _17
REMARK    8  A    between atoms: _20  and  _22
REMARK    9  A    between atoms: _22  and  _23
REMARK   10  A    between atoms: _22  and  _25
REMARK   11  A    between atoms: _25  and  _26
REMARK   12  A    between atoms: _31  and  _33
REMARK   13  A    between atoms: _33  and  _34
REMARK   14  A    between atoms: _33  and  _36
REMARK   15  A    between atoms: _36  and  _37
REMARK   16  A    between atoms: _37  and  _38
REMARK   17  A    between atoms: _43  and  _45
REMARK   18  A    between atoms: _45  and  _46
REMARK   19  A    between atoms: _45  and  _48
REMARK   20  A    between atoms: _48  and  _49
REMARK   21  A    between atoms: _55  and  _57
REMARK   22  A    between atoms: _57  and  _58
REMARK   23  A    between atoms: _57  and  _60
REMARK   24  A    between atoms: _60  and  _61
REMARK   25  A    between atoms: _64  and  _66
REMARK   26  A    between atoms: _66  and  _67
REMARK   27  A    between atoms: _66  and  _69
REMARK   28  A    between atoms: _69  and  _70
REMARK   29  A    between atoms: _70  and  _71
REMARK   30  A    between atoms: _71  and  _72
REMARK   31  A    between atoms: _72  and  _73
REMARK   32  A    between atoms: _77  and  _79
REMARK   33  A    between atoms: _79  and  _80
REMARK   34  A    between atoms: _79  and  _82
REMARK   35  A    between atoms: _82  and  _83
REMARK   36  A    between atoms: _83  and  _84
REMARK   37  A    between atoms: _87  and  _89
REMARK   38  A    between atoms: _89  and  _90
REMARK   39  A    between atoms: _89  and  _92
REMARK   40  A    between atoms: _92  and  _93
REMARK   41  A    between atoms: _96  and  _98
REMARK   42  A    between atoms: _98  and  _99
REMARK   43  A    between atoms: _98  and  _101
REMARK   44  A    between atoms: _101  and  _102
REMARK   45  A    between atoms: _107  and  _108
REMARK   46  A    between atoms: _110  and  _112
REMARK   47  A    between atoms: _112  and  _113
REMARK   48  A    between atoms: _112  and  _115
REMARK   49  A    between atoms: _115  and  _116
REMARK   50  A    between atoms: _119  and  _121
REMARK   51  A    between atoms: _121  and  _122
REMARK   52  A    between atoms: _121  and  _124
REMARK   53  A    between atoms: _124  and  _125
REMARK   54  A    between atoms: _128  and  _130
REMARK   55  A    between atoms: _130  and  _131
REMARK   56  A    between atoms: _130  and  _133
REMARK   57  A    between atoms: _136  and  _138
REMARK   58  A    between atoms: _138  and  _139
REMARK   59  A    between atoms: _138  and  _141
REMARK   60  A    between atoms: _141  and  _142
REMARK   61  A    between atoms: _142  and  _143
REMARK   62  A    between atoms: _143  and  _144
REMARK   63  A    between atoms: _153  and  _155
REMARK   64  A    between atoms: _155  and  _156
REMARK   65  A    between atoms: _155  and  _158
REMARK   66  A    between atoms: _158  and  _159
REMARK   67  A    between atoms: _162  and  _164
REMARK   68  A    between atoms: _164  and  _165
REMARK   69  A    between atoms: _164  and  _167
REMARK   70  A    between atoms: _167  and  _168
REMARK   71  A    between atoms: _173  and  _175
REMARK   72  A    between atoms: _175  and  _176
REMARK   73  A    between atoms: _175  and  _178
REMARK   74  A    between atoms: _178  and  _179
REMARK   75  A    between atoms: _179  and  _180
REMARK   76  A    between atoms: _183  and  _185
REMARK   77  A    between atoms: _185  and  _186
REMARK   78  A    between atoms: _185  and  _188
REMARK   79  A    between atoms: _188  and  _189
REMARK   80  A    between atoms: _189  and  _190
REMARK   81  A    between atoms: _190  and  _191
REMARK   82  A    between atoms: _191  and  _192
REMARK   83  A    between atoms: _196  and  _198
REMARK   84  A    between atoms: _198  and  _199
REMARK   85  A    between atoms: _201  and  _203
REMARK   86  A    between atoms: _203  and  _204
REMARK   87  A    between atoms: _203  and  _206
REMARK   88  A    between atoms: _209  and  _211
REMARK   89  A    between atoms: _211  and  _212
REMARK   90  A    between atoms: _211  and  _214
REMARK   91  A    between atoms: _214  and  _215
REMARK   92  A    between atoms: _217  and  _219
REMARK   93  A    between atoms: _219  and  _220
REMARK   94  A    between atoms: _219  and  _222
REMARK   95  A    between atoms: _222  and  _223
REMARK   96  A    between atoms: _225  and  _227
REMARK   97  A    between atoms: _227  and  _228
REMARK   98  A    between atoms: _227  and  _230
REMARK   99  A    between atoms: _230  and  _231
REMARK  100  A    between atoms: _237  and  _239
REMARK  101  A    between atoms: _239  and  _240
REMARK  102  A    between atoms: _239  and  _242
REMARK  103  A    between atoms: _242  and  _243
REMARK  104  A    between atoms: _246  and  _248
REMARK  105  A    between atoms: _248  and  _249
REMARK  106  A    between atoms: _248  and  _251
REMARK  107  A    between atoms: _251  and  _252
REMARK  108  A    between atoms: _255  and  _257
REMARK  109  A    between atoms: _257  and  _258
REMARK  110  A    between atoms: _257  and  _260
REMARK  111  A    between atoms: _260  and  _261
REMARK  112  A    between atoms: _264  and  _266
REMARK  113  A    between atoms: _266  and  _267
REMARK  114  A    between atoms: _266  and  _269
REMARK  115  A    between atoms: _269  and  _270
REMARK  116  A    between atoms: _270  and  _271
REMARK  117  A    between atoms: _273  and  _275
REMARK  118  A    between atoms: _275  and  _276
REMARK  119  A    between atoms: _275  and  _278
REMARK  120  A    between atoms: _278  and  _279
REMARK  121  A    between atoms: _285  and  _287
REMARK  122  A    between atoms: _287  and  _288
REMARK  123  A    between atoms: _287  and  _290
REMARK  124  A    between atoms: _292  and  _294
REMARK  125  A    between atoms: _294  and  _295
REMARK  126  A    between atoms: _298  and  _300
REMARK  127  A    between atoms: _300  and  _301
REMARK  128  A    between atoms: _303  and  _305
REMARK  129  A    between atoms: _305  and  _306
REMARK  130  A    between atoms: _305  and  _308
REMARK  131  A    between atoms: _308  and  _309
REMARK  132  A    between atoms: _309  and  _310
REMARK  133  A    between atoms: _313  and  _315
REMARK  134  A    between atoms: _315  and  _316
REMARK  135  A    between atoms: _315  and  _318
REMARK  136  A    between atoms: _318  and  _319
REMARK  137  A    between atoms: _322  and  _324
REMARK  138  A    between atoms: _324  and  _325
REMARK  139  A    between atoms: _328  and  _330
REMARK  140  A    between atoms: _330  and  _331
REMARK  141  A    between atoms: _330  and  _333
REMARK  142  A    between atoms: _333  and  _334
REMARK  143  A    between atoms: _334  and  _457
REMARK  144  A    between atoms: _335  and  _337
REMARK  145  A    between atoms: _337  and  _338
REMARK  146  A    between atoms: _337  and  _340
REMARK  147  A    between atoms: _340  and  _341
REMARK  148  A    between atoms: _341  and  _342
REMARK  149  A    between atoms: _347  and  _349
REMARK  150  A    between atoms: _349  and  _350
REMARK  151  A    between atoms: _352  and  _354
REMARK  152  A    between atoms: _354  and  _355
REMARK  153  A    between atoms: _354  and  _357
REMARK  154  A    between atoms: _357  and  _358
REMARK  155  A    between atoms: _361  and  _363
REMARK  156  A    between atoms: _363  and  _364
REMARK  157  A    between atoms: _363  and  _366
REMARK  158  A    between atoms: _366  and  _367
REMARK  159  A    between atoms: _369  and  _371
REMARK  160  A    between atoms: _371  and  _372
REMARK  161  A    between atoms: _374  and  _376
REMARK  162  A    between atoms: _376  and  _377
REMARK  163  A    between atoms: _379  and  _381
REMARK  164  A    between atoms: _381  and  _382
REMARK  165  A    between atoms: _381  and  _384
REMARK  166  A    between atoms: _384  and  _385
REMARK  167  A    between atoms: _390  and  _392
REMARK  168  A    between atoms: _392  and  _393
REMARK  169  A    between atoms: _392  and  _395
REMARK  170  A    between atoms: _395  and  _396
REMARK  171  A    between atoms: _399  and  _401
REMARK  172  A    between atoms: _401  and  _402
REMARK  173  A    between atoms: _401  and  _404
REMARK  174  A    between atoms: _407  and  _409
REMARK  175  A    between atoms: _409  and  _410
REMARK  176  A    between atoms: _409  and  _412
REMARK  177  A    between atoms: _412  and  _413
REMARK  178  A    between atoms: _415  and  _417
REMARK  179  A    between atoms: _417  and  _418
REMARK  180  A    between atoms: _417  and  _420
REMARK  181  A    between atoms: _420  and  _421
REMARK  182  A    between atoms: _431  and  _433
REMARK  183  A    between atoms: _433  and  _434
REMARK  184  A    between atoms: _436  and  _438
REMARK  185  A    between atoms: _438  and  _439
REMARK  186  A    between atoms: _438  and  _441
REMARK  187  A    between atoms: _441  and  _442
REMARK  188  A    between atoms: _442  and  _443
REMARK  189  A    between atoms: _446  and  _448
REMARK  190  A    between atoms: _448  and  _449
REMARK  191  A    between atoms: _451  and  _453
REMARK  192  A    between atoms: _453  and  _454
REMARK  193  A    between atoms: _453  and  _456
REMARK  194  A    between atoms: _456  and  _457
REMARK  195  A    between atoms: _458  and  _460
REMARK  196  A    between atoms: _460  and  _461
REMARK  197  A    between atoms: _464  and  _466
REMARK  198  A    between atoms: _466  and  _467
REMARK  199  A    between atoms: _466  and  _469
REMARK  200  A    between atoms: _469  and  _470
REMARK  201  A    between atoms: _470  and  _471
REMARK  202  A    between atoms: _471  and  _472
REMARK  203  A    between atoms: _481  and  _483
REMARK  204  A    between atoms: _483  and  _484
REMARK  205  A    between atoms: _483  and  _486
REMARK  206  A    between atoms: _486  and  _487
REMARK  207  A    between atoms: _487  and  _488
REMARK  208  A    between atoms: _488  and  _489
REMARK  209  A    between atoms: _489  and  _490
REMARK  210  A    between atoms: _494  and  _496
REMARK  211  A    between atoms: _496  and  _497
REMARK  212  A    between atoms: _496  and  _499
REMARK  213  A    between atoms: _499  and  _500
REMARK  214  A    between atoms: _505  and  _506
REMARK  215  A    between atoms: _508  and  _510
REMARK  216  A    between atoms: _510  and  _511
REMARK  217  A    between atoms: _513  and  _515
REMARK  218  A    between atoms: _515  and  _516
REMARK  219  A    between atoms: _515  and  _518
REMARK  220  A    between atoms: _518  and  _519
REMARK  221  A    between atoms: _522  and  _524
REMARK  222  A    between atoms: _524  and  _525
REMARK  223  A    between atoms: _524  and  _527
REMARK  224  A    between atoms: _527  and  _528
REMARK  225  A    between atoms: _533  and  _534
REMARK  226  A    between atoms: _536  and  _538
REMARK  227  A    between atoms: _538  and  _539
REMARK  228  A    between atoms: _538  and  _541
REMARK  229  A    between atoms: _541  and  _542
REMARK                            x       y       z     vdW  Elec       q    Type
REMARK                         _______ _______ _______ _____ _____    ______ ____
ROOT
ATOM      1  O   HOH     1       5.128  72.342  11.354  0.00  0.00    +0.000 OA
ENDROOT
TORSDOF 0
REMARK  Name = ../refined-set-2016/2xbw/2xbw_pocket.pdb
REMARK  229 active torsions:
REMARK  status: ('A' for Active; 'I' for Inactive)
REMARK    1  A    between atoms: _1  and  _5
REMARK    2  A    between atoms: _5  and  _6
REMARK    3  A    between atoms: _5  and  _8
REMARK    4  A    between atoms: _8  and  _9
REMARK    5  A    between atoms: _12  and  _14
REMARK    6  A    between atoms: _14  and  _15
REMARK    7  A    between atoms: _14  and  _17
REMARK    8  A    between atoms: _20  and  _22
REMARK    9  A    between atoms: _22  and  _23
REMARK   10  A    between atoms: _22  and  _25
REMARK   11  A    between atoms: _25  and  _26
REMARK   12  A    between atoms: _31  and  _33
REMARK   13  A    between atoms: _33  and  _34
REMARK   14  A    between atoms: _33  and  _36
REMARK   15  A    between atoms: _36  and  _37
REMARK   16  A    between atoms: _37  and  _38
REMARK   17  A    between atoms: _43  and  _45
REMARK   18  A    between atoms: _45  and  _46
REMARK   19  A    between atoms: _45  and  _48
REMARK   20  A    between atoms: _48  and  _49
REMARK   21  A    between atoms: _55  and  _57
REMARK   22  A    between atoms: _57  and  _58
REMARK   23  A    between atoms: _57  and  _60
REMARK   24  A    between atoms: _60  and  _61
REMARK   25  A    between atoms: _64  and  _66
REMARK   26  A    between atoms: _66  and  _67
REMARK   27  A    between atoms: _66  and  _69
REMARK   28  A    between atoms: _69  and  _70
REMARK   29  A    between atoms: _70  and  _71
REMARK   30  A    between atoms: _71  and  _72
REMARK   31  A    between atoms: _72  and  _73
REMARK   32  A    between atoms: _77  and  _79
REMARK   33  A    between atoms: _79  and  _80
REMARK   34  A    between atoms: _79  and  _82
REMARK   35  A    between atoms: _82  and  _83
REMARK   36  A    between atoms: _83  and  _84
REMARK   37  A    between atoms: _87  and  _89
REMARK   38  A    between atoms: _89  and  _90
REMARK   39  A    between atoms: _89  and  _92
REMARK   40  A    between atoms: _92  and  _93
REMARK   41  A    between atoms: _96  and  _98
REMARK   42  A    between atoms: _98  and  _99
REMARK   43  A    between atoms: _98  and  _101
REMARK   44  A    between atoms: _101  and  _102
REMARK   45  A    between atoms: _107  and  _108
REMARK   46  A    between atoms: _110  and  _112
REMARK   47  A    between atoms: _112  and  _113
REMARK   48  A    between atoms: _112  and  _115
REMARK   49  A    between atoms: _115  and  _116
REMARK   50  A    between atoms: _119  and  _121
REMARK   51  A    between atoms: _121  and  _122
REMARK   52  A    between atoms: _121  and  _124
REMARK   53  A    between atoms: _124  and  _125
REMARK   54  A    between atoms: _128  and  _130
REMARK   55  A    between atoms: _130  and  _131
REMARK   56  A    between atoms: _130  and  _133
REMARK   57  A    between atoms: _136  and  _138
REMARK   58  A    between atoms: _138  and  _139
REMARK   59  A    between atoms: _138  and  _141
REMARK   60  A    between atoms: _141  and  _142
REMARK   61  A    between atoms: _142  and  _143
REMARK   62  A    between atoms: _143  and  _144
REMARK   63  A    between atoms: _153  and  _155
REMARK   64  A    between atoms: _155  and  _156
REMARK   65  A    between atoms: _155  and  _158
REMARK   66  A    between atoms: _158  and  _159
REMARK   67  A    between atoms: _162  and  _164
REMARK   68  A    between atoms: _164  and  _165
REMARK   69  A    between atoms: _164  and  _167
REMARK   70  A    between atoms: _167  and  _168
REMARK   71  A    between atoms: _173  and  _175
REMARK   72  A    between atoms: _175  and  _176
REMARK   73  A    between atoms: _175  and  _178
REMARK   74  A    between atoms: _178  and  _179
REMARK   75  A    between atoms: _179  and  _180
REMARK   76  A    between atoms: _183  and  _185
REMARK   77  A    between atoms: _185  and  _186
REMARK   78  A    between atoms: _185  and  _188
REMARK   79  A    between atoms: _188  and  _189
REMARK   80  A    between atoms: _189  and  _190
REMARK   81  A    between atoms: _190  and  _191
REMARK   82  A    between atoms: _191  and  _192
REMARK   83  A    between atoms: _196  and  _198
REMARK   84  A    between atoms: _198  and  _199
REMARK   85  A    between atoms: _201  and  _203
REMARK   86  A    between atoms: _203  and  _204
REMARK   87  A    between atoms: _203  and  _206
REMARK   88  A    between atoms: _209  and  _211
REMARK   89  A    between atoms: _211  and  _212
REMARK   90  A    between atoms: _211  and  _214
REMARK   91  A    between atoms: _214  and  _215
REMARK   92  A    between atoms: _217  and  _219
REMARK   93  A    between atoms: _219  and  _220
REMARK   94  A    between atoms: _219  and  _222
REMARK   95  A    between atoms: _222  and  _223
REMARK   96  A    between atoms: _225  and  _227
REMARK   97  A    between atoms: _227  and  _228
REMARK   98  A    between atoms: _227  and  _230
REMARK   99  A    between atoms: _230  and  _231
REMARK  100  A    between atoms: _237  and  _239
REMARK  101  A    between atoms: _239  and  _240
REMARK  102  A    between atoms: _239  and  _242
REMARK  103  A    between atoms: _242  and  _243
REMARK  104  A    between atoms: _246  and  _248
REMARK  105  A    between atoms: _248  and  _249
REMARK  106  A    between atoms: _248  and  _251
REMARK  107  A    between atoms: _251  and  _252
REMARK  108  A    between atoms: _255  and  _257
REMARK  109  A    between atoms: _257  and  _258
REMARK  110  A    between atoms: _257  and  _260
REMARK  111  A    between atoms: _260  and  _261
REMARK  112  A    between atoms: _264  and  _266
REMARK  113  A    between atoms: _266  and  _267
REMARK  114  A    between atoms: _266  and  _269
REMARK  115  A    between atoms: _269  and  _270
REMARK  116  A    between atoms: _270  and  _271
REMARK  117  A    between atoms: _273  and  _275
REMARK  118  A    between atoms: _275  and  _276
REMARK  119  A    between atoms: _275  and  _278
REMARK  120  A    between atoms: _278  and  _279
REMARK  121  A    between atoms: _285  and  _287
REMARK  122  A    between atoms: _287  and  _288
REMARK  123  A    between atoms: _287  and  _290
REMARK  124  A    between atoms: _292  and  _294
REMARK  125  A    between atoms: _294  and  _295
REMARK  126  A    between atoms: _298  and  _300
REMARK  127  A    between atoms: _300  and  _301
REMARK  128  A    between atoms: _303  and  _305
REMARK  129  A    between atoms: _305  and  _306
REMARK  130  A    between atoms: _305  and  _308
REMARK  131  A    between atoms: _308  and  _309
REMARK  132  A    between atoms: _309  and  _310
REMARK  133  A    between atoms: _313  and  _315
REMARK  134  A    between atoms: _315  and  _316
REMARK  135  A    between atoms: _315  and  _318
REMARK  136  A    between atoms: _318  and  _319
REMARK  137  A    between atoms: _322  and  _324
REMARK  138  A    between atoms: _324  and  _325
REMARK  139  A    between atoms: _328  and  _330
REMARK  140  A    between atoms: _330  and  _331
REMARK  141  A    between atoms: _330  and  _333
REMARK  142  A    between atoms: _333  and  _334
REMARK  143  A    between atoms: _334  and  _457
REMARK  144  A    between atoms: _335  and  _337
REMARK  145  A    between atoms: _337  and  _338
REMARK  146  A    between atoms: _337  and  _340
REMARK  147  A    between atoms: _340  and  _341
REMARK  148  A    between atoms: _341  and  _342
REMARK  149  A    between atoms: _347  and  _349
REMARK  150  A    between atoms: _349  and  _350
REMARK  151  A    between atoms: _352  and  _354
REMARK  152  A    between atoms: _354  and  _355
REMARK  153  A    between atoms: _354  and  _357
REMARK  154  A    between atoms: _357  and  _358
REMARK  155  A    between atoms: _361  and  _363
REMARK  156  A    between atoms: _363  and  _364
REMARK  157  A    between atoms: _363  and  _366
REMARK  158  A    between atoms: _366  and  _367
REMARK  159  A    between atoms: _369  and  _371
REMARK  160  A    between atoms: _371  and  _372
REMARK  161  A    between atoms: _374  and  _376
REMARK  162  A    between atoms: _376  and  _377
REMARK  163  A    between atoms: _379  and  _381
REMARK  164  A    between atoms: _381  and  _382
REMARK  165  A    between atoms: _381  and  _384
REMARK  166  A    between atoms: _384  and  _385
REMARK  167  A    between atoms: _390  and  _392
REMARK  168  A    between atoms: _392  and  _393
REMARK  169  A    between atoms: _392  and  _395
REMARK  170  A    between atoms: _395  and  _396
REMARK  171  A    between atoms: _399  and  _401
REMARK  172  A    between atoms: _401  and  _402
REMARK  173  A    between atoms: _401  and  _404
REMARK  174  A    between atoms: _407  and  _409
REMARK  175  A    between atoms: _409  and  _410
REMARK  176  A    between atoms: _409  and  _412
REMARK  177  A    between atoms: _412  and  _413
REMARK  178  A    between atoms: _415  and  _417
REMARK  179  A    between atoms: _417  and  _418
REMARK  180  A    between atoms: _417  and  _420
REMARK  181  A    between atoms: _420  and  _421
REMARK  182  A    between atoms: _431  and  _433
REMARK  183  A    between atoms: _433  and  _434
REMARK  184  A    between atoms: _436  and  _438
REMARK  185  A    between atoms: _438  and  _439
REMARK  186  A    between atoms: _438  and  _441
REMARK  187  A    between atoms: _441  and  _442
REMARK  188  A    between atoms: _442  and  _443
REMARK  189  A    between atoms: _446  and  _448
REMARK  190  A    between atoms: _448  and  _449
REMARK  191  A    between atoms: _451  and  _453
REMARK  192  A    between atoms: _453  and  _454
REMARK  193  A    between atoms: _453  and  _456
REMARK  194  A    between atoms: _456  and  _457
REMARK  195  A    between atoms: _458  and  _460
REMARK  196  A    between atoms: _460  and  _461
REMARK  197  A    between atoms: _464  and  _466
REMARK  198  A    between atoms: _466  and  _467
REMARK  199  A    between atoms: _466  and  _469
REMARK  200  A    between atoms: _469  and  _470
REMARK  201  A    between atoms: _470  and  _471
REMARK  202  A    between atoms: _471  and  _472
REMARK  203  A    between atoms: _481  and  _483
REMARK  204  A    between atoms: _483  and  _484
REMARK  205  A    between atoms: _483  and  _486
REMARK  206  A    between atoms: _486  and  _487
REMARK  207  A    between atoms: _487  and  _488
REMARK  208  A    between atoms: _488  and  _489
REMARK  209  A    between atoms: _489  and  _490
REMARK  210  A    between atoms: _494  and  _496
REMARK  211  A    between atoms: _496  and  _497
REMARK  212  A    between atoms: _496  and  _499
REMARK  213  A    between atoms: _499  and  _500
REMARK  214  A    between atoms: _505  and  _506
REMARK  215  A    between atoms: _508  and  _510
REMARK  216  A    between atoms: _510  and  _511
REMARK  217  A    between atoms: _513  and  _515
REMARK  218  A    between atoms: _515  and  _516
REMARK  219  A    between atoms: _515  and  _518
REMARK  220  A    between atoms: _518  and  _519
REMARK  221  A    between atoms: _522  and  _524
REMARK  222  A    between atoms: _524  and  _525
REMARK  223  A    between atoms: _524  and  _527
REMARK  224  A    between atoms: _527  and  _528
REMARK  225  A    between atoms: _533  and  _534
REMARK  226  A    between atoms: _536  and  _538
REMARK  227  A    between atoms: _538  and  _539
REMARK  228  A    between atoms: _538  and  _541
REMARK  229  A    between atoms: _541  and  _542
REMARK                            x       y       z     vdW  Elec       q    Type
REMARK                         _______ _______ _______ _____ _____    ______ ____
ROOT
ATOM      1  O   HOH     1      13.482  66.204  13.828  0.00  0.00    +0.000 OA
ENDROOT
TORSDOF 0
REMARK  Name = ../refined-set-2016/2xbw/2xbw_pocket.pdb
REMARK  229 active torsions:
REMARK  status: ('A' for Active; 'I' for Inactive)
REMARK    1  A    between atoms: _1  and  _5
REMARK    2  A    between atoms: _5  and  _6
REMARK    3  A    between atoms: _5  and  _8
REMARK    4  A    between atoms: _8  and  _9
REMARK    5  A    between atoms: _12  and  _14
REMARK    6  A    between atoms: _14  and  _15
REMARK    7  A    between atoms: _14  and  _17
REMARK    8  A    between atoms: _20  and  _22
REMARK    9  A    between atoms: _22  and  _23
REMARK   10  A    between atoms: _22  and  _25
REMARK   11  A    between atoms: _25  and  _26
REMARK   12  A    between atoms: _31  and  _33
REMARK   13  A    between atoms: _33  and  _34
REMARK   14  A    between atoms: _33  and  _36
REMARK   15  A    between atoms: _36  and  _37
REMARK   16  A    between atoms: _37  and  _38
REMARK   17  A    between atoms: _43  and  _45
REMARK   18  A    between atoms: _45  and  _46
REMARK   19  A    between atoms: _45  and  _48
REMARK   20  A    between atoms: _48  and  _49
REMARK   21  A    between atoms: _55  and  _57
REMARK   22  A    between atoms: _57  and  _58
REMARK   23  A    between atoms: _57  and  _60
REMARK   24  A    between atoms: _60  and  _61
REMARK   25  A    between atoms: _64  and  _66
REMARK   26  A    between atoms: _66  and  _67
REMARK   27  A    between atoms: _66  and  _69
REMARK   28  A    between atoms: _69  and  _70
REMARK   29  A    between atoms: _70  and  _71
REMARK   30  A    between atoms: _71  and  _72
REMARK   31  A    between atoms: _72  and  _73
REMARK   32  A    between atoms: _77  and  _79
REMARK   33  A    between atoms: _79  and  _80
REMARK   34  A    between atoms: _79  and  _82
REMARK   35  A    between atoms: _82  and  _83
REMARK   36  A    between atoms: _83  and  _84
REMARK   37  A    between atoms: _87  and  _89
REMARK   38  A    between atoms: _89  and  _90
REMARK   39  A    between atoms: _89  and  _92
REMARK   40  A    between atoms: _92  and  _93
REMARK   41  A    between atoms: _96  and  _98
REMARK   42  A    between atoms: _98  and  _99
REMARK   43  A    between atoms: _98  and  _101
REMARK   44  A    between atoms: _101  and  _102
REMARK   45  A    between atoms: _107  and  _108
REMARK   46  A    between atoms: _110  and  _112
REMARK   47  A    between atoms: _112  and  _113
REMARK   48  A    between atoms: _112  and  _115
REMARK   49  A    between atoms: _115  and  _116
REMARK   50  A    between atoms: _119  and  _121
REMARK   51  A    between atoms: _121  and  _122
REMARK   52  A    between atoms: _121  and  _124
REMARK   53  A    between atoms: _124  and  _125
REMARK   54  A    between atoms: _128  and  _130
REMARK   55  A    between atoms: _130  and  _131
REMARK   56  A    between atoms: _130  and  _133
REMARK   57  A    between atoms: _136  and  _138
REMARK   58  A    between atoms: _138  and  _139
REMARK   59  A    between atoms: _138  and  _141
REMARK   60  A    between atoms: _141  and  _142
REMARK   61  A    between atoms: _142  and  _143
REMARK   62  A    between atoms: _143  and  _144
REMARK   63  A    between atoms: _153  and  _155
REMARK   64  A    between atoms: _155  and  _156
REMARK   65  A    between atoms: _155  and  _158
REMARK   66  A    between atoms: _158  and  _159
REMARK   67  A    between atoms: _162  and  _164
REMARK   68  A    between atoms: _164  and  _165
REMARK   69  A    between atoms: _164  and  _167
REMARK   70  A    between atoms: _167  and  _168
REMARK   71  A    between atoms: _173  and  _175
REMARK   72  A    between atoms: _175  and  _176
REMARK   73  A    between atoms: _175  and  _178
REMARK   74  A    between atoms: _178  and  _179
REMARK   75  A    between atoms: _179  and  _180
REMARK   76  A    between atoms: _183  and  _185
REMARK   77  A    between atoms: _185  and  _186
REMARK   78  A    between atoms: _185  and  _188
REMARK   79  A    between atoms: _188  and  _189
REMARK   80  A    between atoms: _189  and  _190
REMARK   81  A    between atoms: _190  and  _191
REMARK   82  A    between atoms: _191  and  _192
REMARK   83  A    between atoms: _196  and  _198
REMARK   84  A    between atoms: _198  and  _199
REMARK   85  A    between atoms: _201  and  _203
REMARK   86  A    between atoms: _203  and  _204
REMARK   87  A    between atoms: _203  and  _206
REMARK   88  A    between atoms: _209  and  _211
REMARK   89  A    between atoms: _211  and  _212
REMARK   90  A    between atoms: _211  and  _214
REMARK   91  A    between atoms: _214  and  _215
REMARK   92  A    between atoms: _217  and  _219
REMARK   93  A    between atoms: _219  and  _220
REMARK   94  A    between atoms: _219  and  _222
REMARK   95  A    between atoms: _222  and  _223
REMARK   96  A    between atoms: _225  and  _227
REMARK   97  A    between atoms: _227  and  _228
REMARK   98  A    between atoms: _227  and  _230
REMARK   99  A    between atoms: _230  and  _231
REMARK  100  A    between atoms: _237  and  _239
REMARK  101  A    between atoms: _239  and  _240
REMARK  102  A    between atoms: _239  and  _242
REMARK  103  A    between atoms: _242  and  _243
REMARK  104  A    between atoms: _246  and  _248
REMARK  105  A    between atoms: _248  and  _249
REMARK  106  A    between atoms: _248  and  _251
REMARK  107  A    between atoms: _251  and  _252
REMARK  108  A    between atoms: _255  and  _257
REMARK  109  A    between atoms: _257  and  _258
REMARK  110  A    between atoms: _257  and  _260
REMARK  111  A    between atoms: _260  and  _261
REMARK  112  A    between atoms: _264  and  _266
REMARK  113  A    between atoms: _266  and  _267
REMARK  114  A    between atoms: _266  and  _269
REMARK  115  A    between atoms: _269  and  _270
REMARK  116  A    between atoms: _270  and  _271
REMARK  117  A    between atoms: _273  and  _275
REMARK  118  A    between atoms: _275  and  _276
REMARK  119  A    between atoms: _275  and  _278
REMARK  120  A    between atoms: _278  and  _279
REMARK  121  A    between atoms: _285  and  _287
REMARK  122  A    between atoms: _287  and  _288
REMARK  123  A    between atoms: _287  and  _290
REMARK  124  A    between atoms: _292  and  _294
REMARK  125  A    between atoms: _294  and  _295
REMARK  126  A    between atoms: _298  and  _300
REMARK  127  A    between atoms: _300  and  _301
REMARK  128  A    between atoms: _303  and  _305
REMARK  129  A    between atoms: _305  and  _306
REMARK  130  A    between atoms: _305  and  _308
REMARK  131  A    between atoms: _308  and  _309
REMARK  132  A    between atoms: _309  and  _310
REMARK  133  A    between atoms: _313  and  _315
REMARK  134  A    between atoms: _315  and  _316
REMARK  135  A    between atoms: _315  and  _318
REMARK  136  A    between atoms: _318  and  _319
REMARK  137  A    between atoms: _322  and  _324
REMARK  138  A    between atoms: _324  and  _325
REMARK  139  A    between atoms: _328  and  _330
REMARK  140  A    between atoms: _330  and  _331
REMARK  141  A    between atoms: _330  and  _333
REMARK  142  A    between atoms: _333  and  _334
REMARK  143  A    between atoms: _334  and  _457
REMARK  144  A    between atoms: _335  and  _337
REMARK  145  A    between atoms: _337  and  _338
REMARK  146  A    between atoms: _337  and  _340
REMARK  147  A    between atoms: _340  and  _341
REMARK  148  A    between atoms: _341  and  _342
REMARK  149  A    between atoms: _347  and  _349
REMARK  150  A    between atoms: _349  and  _350
REMARK  151  A    between atoms: _352  and  _354
REMARK  152  A    between atoms: _354  and  _355
REMARK  153  A    between atoms: _354  and  _357
REMARK  154  A    between atoms: _357  and  _358
REMARK  155  A    between atoms: _361  and  _363
REMARK  156  A    between atoms: _363  and  _364
REMARK  157  A    between atoms: _363  and  _366
REMARK  158  A    between atoms: _366  and  _367
REMARK  159  A    between atoms: _369  and  _371
REMARK  160  A    between atoms: _371  and  _372
REMARK  161  A    between atoms: _374  and  _376
REMARK  162  A    between atoms: _376  and  _377
REMARK  163  A    between atoms: _379  and  _381
REMARK  164  A    between atoms: _381  and  _382
REMARK  165  A    between atoms: _381  and  _384
REMARK  166  A    between atoms: _384  and  _385
REMARK  167  A    between atoms: _390  and  _392
REMARK  168  A    between atoms: _392  and  _393
REMARK  169  A    between atoms: _392  and  _395
REMARK  170  A    between atoms: _395  and  _396
REMARK  171  A    between atoms: _399  and  _401
REMARK  172  A    between atoms: _401  and  _402
REMARK  173  A    between atoms: _401  and  _404
REMARK  174  A    between atoms: _407  and  _409
REMARK  175  A    between atoms: _409  and  _410
REMARK  176  A    between atoms: _409  and  _412
REMARK  177  A    between atoms: _412  and  _413
REMARK  178  A    between atoms: _415  and  _417
REMARK  179  A    between atoms: _417  and  _418
REMARK  180  A    between atoms: _417  and  _420
REMARK  181  A    between atoms: _420  and  _421
REMARK  182  A    between atoms: _431  and  _433
REMARK  183  A    between atoms: _433  and  _434
REMARK  184  A    between atoms: _436  and  _438
REMARK  185  A    between atoms: _438  and  _439
REMARK  186  A    between atoms: _438  and  _441
REMARK  187  A    between atoms: _441  and  _442
REMARK  188  A    between atoms: _442  and  _443
REMARK  189  A    between atoms: _446  and  _448
REMARK  190  A    between atoms: _448  and  _449
REMARK  191  A    between atoms: _451  and  _453
REMARK  192  A    between atoms: _453  and  _454
REMARK  193  A    between atoms: _453  and  _456
REMARK  194  A    between atoms: _456  and  _457
REMARK  195  A    between atoms: _458  and  _460
REMARK  196  A    between atoms: _460  and  _461
REMARK  197  A    between atoms: _464  and  _466
REMARK  198  A    between atoms: _466  and  _467
REMARK  199  A    between atoms: _466  and  _469
REMARK  200  A    between atoms: _469  and  _470
REMARK  201  A    between atoms: _470  and  _471
REMARK  202  A    between atoms: _471  and  _472
REMARK  203  A    between atoms: _481  and  _483
REMARK  204  A    between atoms: _483  and  _484
REMARK  205  A    between atoms: _483  and  _486
REMARK  206  A    between atoms: _486  and  _487
REMARK  207  A    between atoms: _487  and  _488
REMARK  208  A    between atoms: _488  and  _489
REMARK  209  A    between atoms: _489  and  _490
REMARK  210  A    between atoms: _494  and  _496
REMARK  211  A    between atoms: _496  and  _497
REMARK  212  A    between atoms: _496  and  _499
REMARK  213  A    between atoms: _499  and  _500
REMARK  214  A    between atoms: _505  and  _506
REMARK  215  A    between atoms: _508  and  _510
REMARK  216  A    between atoms: _510  and  _511
REMARK  217  A    between atoms: _513  and  _515
REMARK  218  A    between atoms: _515  and  _516
REMARK  219  A    between atoms: _515  and  _518
REMARK  220  A    between atoms: _518  and  _519
REMARK  221  A    between atoms: _522  and  _524
REMARK  222  A    between atoms: _524  and  _525
REMARK  223  A    between atoms: _524  and  _527
REMARK  224  A    between atoms: _527  and  _528
REMARK  225  A    between atoms: _533  and  _534
REMARK  226  A    between atoms: _536  and  _538
REMARK  227  A    between atoms: _538  and  _539
REMARK  228  A    between atoms: _538  and  _541
REMARK  229  A    between atoms: _541  and  _542
REMARK                            x       y       z     vdW  Elec       q    Type
REMARK                         _______ _______ _______ _____ _____    ______ ____
ROOT
ATOM      1  O   HOH     1       9.745  62.246  10.723  0.00  0.00    +0.000 OA
ENDROOT
TORSDOF 0
REMARK  Name = ../refined-set-2016/2xbw/2xbw_pocket.pdb
REMARK  229 active torsions:
REMARK  status: ('A' for Active; 'I' for Inactive)
REMARK    1  A    between atoms: _1  and  _5
REMARK    2  A    between atoms: _5  and  _6
REMARK    3  A    between atoms: _5  and  _8
REMARK    4  A    between atoms: _8  and  _9
REMARK    5  A    between atoms: _12  and  _14
REMARK    6  A    between atoms: _14  and  _15
REMARK    7  A    between atoms: _14  and  _17
REMARK    8  A    between atoms: _20  and  _22
REMARK    9  A    between atoms: _22  and  _23
REMARK   10  A    between atoms: _22  and  _25
REMARK   11  A    between atoms: _25  and  _26
REMARK   12  A    between atoms: _31  and  _33
REMARK   13  A    between atoms: _33  and  _34
REMARK   14  A    between atoms: _33  and  _36
REMARK   15  A    between atoms: _36  and  _37
REMARK   16  A    between atoms: _37  and  _38
REMARK   17  A    between atoms: _43  and  _45
REMARK   18  A    between atoms: _45  and  _46
REMARK   19  A    between atoms: _45  and  _48
REMARK   20  A    between atoms: _48  and  _49
REMARK   21  A    between atoms: _55  and  _57
REMARK   22  A    between atoms: _57  and  _58
REMARK   23  A    between atoms: _57  and  _60
REMARK   24  A    between atoms: _60  and  _61
REMARK   25  A    between atoms: _64  and  _66
REMARK   26  A    between atoms: _66  and  _67
REMARK   27  A    between atoms: _66  and  _69
REMARK   28  A    between atoms: _69  and  _70
REMARK   29  A    between atoms: _70  and  _71
REMARK   30  A    between atoms: _71  and  _72
REMARK   31  A    between atoms: _72  and  _73
REMARK   32  A    between atoms: _77  and  _79
REMARK   33  A    between atoms: _79  and  _80
REMARK   34  A    between atoms: _79  and  _82
REMARK   35  A    between atoms: _82  and  _83
REMARK   36  A    between atoms: _83  and  _84
REMARK   37  A    between atoms: _87  and  _89
REMARK   38  A    between atoms: _89  and  _90
REMARK   39  A    between atoms: _89  and  _92
REMARK   40  A    between atoms: _92  and  _93
REMARK   41  A    between atoms: _96  and  _98
REMARK   42  A    between atoms: _98  and  _99
REMARK   43  A    between atoms: _98  and  _101
REMARK   44  A    between atoms: _101  and  _102
REMARK   45  A    between atoms: _107  and  _108
REMARK   46  A    between atoms: _110  and  _112
REMARK   47  A    between atoms: _112  and  _113
REMARK   48  A    between atoms: _112  and  _115
REMARK   49  A    between atoms: _115  and  _116
REMARK   50  A    between atoms: _119  and  _121
REMARK   51  A    between atoms: _121  and  _122
REMARK   52  A    between atoms: _121  and  _124
REMARK   53  A    between atoms: _124  and  _125
REMARK   54  A    between atoms: _128  and  _130
REMARK   55  A    between atoms: _130  and  _131
REMARK   56  A    between atoms: _130  and  _133
REMARK   57  A    between atoms: _136  and  _138
REMARK   58  A    between atoms: _138  and  _139
REMARK   59  A    between atoms: _138  and  _141
REMARK   60  A    between atoms: _141  and  _142
REMARK   61  A    between atoms: _142  and  _143
REMARK   62  A    between atoms: _143  and  _144
REMARK   63  A    between atoms: _153  and  _155
REMARK   64  A    between atoms: _155  and  _156
REMARK   65  A    between atoms: _155  and  _158
REMARK   66  A    between atoms: _158  and  _159
REMARK   67  A    between atoms: _162  and  _164
REMARK   68  A    between atoms: _164  and  _165
REMARK   69  A    between atoms: _164  and  _167
REMARK   70  A    between atoms: _167  and  _168
REMARK   71  A    between atoms: _173  and  _175
REMARK   72  A    between atoms: _175  and  _176
REMARK   73  A    between atoms: _175  and  _178
REMARK   74  A    between atoms: _178  and  _179
REMARK   75  A    between atoms: _179  and  _180
REMARK   76  A    between atoms: _183  and  _185
REMARK   77  A    between atoms: _185  and  _186
REMARK   78  A    between atoms: _185  and  _188
REMARK   79  A    between atoms: _188  and  _189
REMARK   80  A    between atoms: _189  and  _190
REMARK   81  A    between atoms: _190  and  _191
REMARK   82  A    between atoms: _191  and  _192
REMARK   83  A    between atoms: _196  and  _198
REMARK   84  A    between atoms: _198  and  _199
REMARK   85  A    between atoms: _201  and  _203
REMARK   86  A    between atoms: _203  and  _204
REMARK   87  A    between atoms: _203  and  _206
REMARK   88  A    between atoms: _209  and  _211
REMARK   89  A    between atoms: _211  and  _212
REMARK   90  A    between atoms: _211  and  _214
REMARK   91  A    between atoms: _214  and  _215
REMARK   92  A    between atoms: _217  and  _219
REMARK   93  A    between atoms: _219  and  _220
REMARK   94  A    between atoms: _219  and  _222
REMARK   95  A    between atoms: _222  and  _223
REMARK   96  A    between atoms: _225  and  _227
REMARK   97  A    between atoms: _227  and  _228
REMARK   98  A    between atoms: _227  and  _230
REMARK   99  A    between atoms: _230  and  _231
REMARK  100  A    between atoms: _237  and  _239
REMARK  101  A    between atoms: _239  and  _240
REMARK  102  A    between atoms: _239  and  _242
REMARK  103  A    between atoms: _242  and  _243
REMARK  104  A    between atoms: _246  and  _248
REMARK  105  A    between atoms: _248  and  _249
REMARK  106  A    between atoms: _248  and  _251
REMARK  107  A    between atoms: _251  and  _252
REMARK  108  A    between atoms: _255  and  _257
REMARK  109  A    between atoms: _257  and  _258
REMARK  110  A    between atoms: _257  and  _260
REMARK  111  A    between atoms: _260  and  _261
REMARK  112  A    between atoms: _264  and  _266
REMARK  113  A    between atoms: _266  and  _267
REMARK  114  A    between atoms: _266  and  _269
REMARK  115  A    between atoms: _269  and  _270
REMARK  116  A    between atoms: _270  and  _271
REMARK  117  A    between atoms: _273  and  _275
REMARK  118  A    between atoms: _275  and  _276
REMARK  119  A    between atoms: _275  and  _278
REMARK  120  A    between atoms: _278  and  _279
REMARK  121  A    between atoms: _285  and  _287
REMARK  122  A    between atoms: _287  and  _288
REMARK  123  A    between atoms: _287  and  _290
REMARK  124  A    between atoms: _292  and  _294
REMARK  125  A    between atoms: _294  and  _295
REMARK  126  A    between atoms: _298  and  _300
REMARK  127  A    between atoms: _300  and  _301
REMARK  128  A    between atoms: _303  and  _305
REMARK  129  A    between atoms: _305  and  _306
REMARK  130  A    between atoms: _305  and  _308
REMARK  131  A    between atoms: _308  and  _309
REMARK  132  A    between atoms: _309  and  _310
REMARK  133  A    between atoms: _313  and  _315
REMARK  134  A    between atoms: _315  and  _316
REMARK  135  A    between atoms: _315  and  _318
REMARK  136  A    between atoms: _318  and  _319
REMARK  137  A    between atoms: _322  and  _324
REMARK  138  A    between atoms: _324  and  _325
REMARK  139  A    between atoms: _328  and  _330
REMARK  140  A    between atoms: _330  and  _331
REMARK  141  A    between atoms: _330  and  _333
REMARK  142  A    between atoms: _333  and  _334
REMARK  143  A    between atoms: _334  and  _457
REMARK  144  A    between atoms: _335  and  _337
REMARK  145  A    between atoms: _337  and  _338
REMARK  146  A    between atoms: _337  and  _340
REMARK  147  A    between atoms: _340  and  _341
REMARK  148  A    between atoms: _341  and  _342
REMARK  149  A    between atoms: _347  and  _349
REMARK  150  A    between atoms: _349  and  _350
REMARK  151  A    between atoms: _352  and  _354
REMARK  152  A    between atoms: _354  and  _355
REMARK  153  A    between atoms: _354  and  _357
REMARK  154  A    between atoms: _357  and  _358
REMARK  155  A    between atoms: _361  and  _363
REMARK  156  A    between atoms: _363  and  _364
REMARK  157  A    between atoms: _363  and  _366
REMARK  158  A    between atoms: _366  and  _367
REMARK  159  A    between atoms: _369  and  _371
REMARK  160  A    between atoms: _371  and  _372
REMARK  161  A    between atoms: _374  and  _376
REMARK  162  A    between atoms: _376  and  _377
REMARK  163  A    between atoms: _379  and  _381
REMARK  164  A    between atoms: _381  and  _382
REMARK  165  A    between atoms: _381  and  _384
REMARK  166  A    between atoms: _384  and  _385
REMARK  167  A    between atoms: _390  and  _392
REMARK  168  A    between atoms: _392  and  _393
REMARK  169  A    between atoms: _392  and  _395
REMARK  170  A    between atoms: _395  and  _396
REMARK  171  A    between atoms: _399  and  _401
REMARK  172  A    between atoms: _401  and  _402
REMARK  173  A    between atoms: _401  and  _404
REMARK  174  A    between atoms: _407  and  _409
REMARK  175  A    between atoms: _409  and  _410
REMARK  176  A    between atoms: _409  and  _412
REMARK  177  A    between atoms: _412  and  _413
REMARK  178  A    between atoms: _415  and  _417
REMARK  179  A    between atoms: _417  and  _418
REMARK  180  A    between atoms: _417  and  _420
REMARK  181  A    between atoms: _420  and  _421
REMARK  182  A    between atoms: _431  and  _433
REMARK  183  A    between atoms: _433  and  _434
REMARK  184  A    between atoms: _436  and  _438
REMARK  185  A    between atoms: _438  and  _439
REMARK  186  A    between atoms: _438  and  _441
REMARK  187  A    between atoms: _441  and  _442
REMARK  188  A    between atoms: _442  and  _443
REMARK  189  A    between atoms: _446  and  _448
REMARK  190  A    between atoms: _448  and  _449
REMARK  191  A    between atoms: _451  and  _453
REMARK  192  A    between atoms: _453  and  _454
REMARK  193  A    between atoms: _453  and  _456
REMARK  194  A    between atoms: _456  and  _457
REMARK  195  A    between atoms: _458  and  _460
REMARK  196  A    between atoms: _460  and  _461
REMARK  197  A    between atoms: _464  and  _466
REMARK  198  A    between atoms: _466  and  _467
REMARK  199  A    between atoms: _466  and  _469
REMARK  200  A    between atoms: _469  and  _470
REMARK  201  A    between atoms: _470  and  _471
REMARK  202  A    between atoms: _471  and  _472
REMARK  203  A    between atoms: _481  and  _483
REMARK  204  A    between atoms: _483  and  _484
REMARK  205  A    between atoms: _483  and  _486
REMARK  206  A    between atoms: _486  and  _487
REMARK  207  A    between atoms: _487  and  _488
REMARK  208  A    between atoms: _488  and  _489
REMARK  209  A    between atoms: _489  and  _490
REMARK  210  A    between atoms: _494  and  _496
REMARK  211  A    between atoms: _496  and  _497
REMARK  212  A    between atoms: _496  and  _499
REMARK  213  A    between atoms: _499  and  _500
REMARK  214  A    between atoms: _505  and  _506
REMARK  215  A    between atoms: _508  and  _510
REMARK  216  A    between atoms: _510  and  _511
REMARK  217  A    between atoms: _513  and  _515
REMARK  218  A    between atoms: _515  and  _516
REMARK  219  A    between atoms: _515  and  _518
REMARK  220  A    between atoms: _518  and  _519
REMARK  221  A    between atoms: _522  and  _524
REMARK  222  A    between atoms: _524  and  _525
REMARK  223  A    between atoms: _524  and  _527
REMARK  224  A    between atoms: _527  and  _528
REMARK  225  A    between atoms: _533  and  _534
REMARK  226  A    between atoms: _536  and  _538
REMARK  227  A    between atoms: _538  and  _539
REMARK  228  A    between atoms: _538  and  _541
REMARK  229  A    between atoms: _541  and  _542
REMARK                            x       y       z     vdW  Elec       q    Type
REMARK                         _______ _______ _______ _____ _____    ______ ____
ROOT
ATOM      1  O   HOH     1      12.115  64.815  10.338  0.00  0.00    +0.000 OA
ENDROOT
TORSDOF 0
REMARK  Name = ../refined-set-2016/2xbw/2xbw_pocket.pdb
REMARK  229 active torsions:
REMARK  status: ('A' for Active; 'I' for Inactive)
REMARK    1  A    between atoms: _1  and  _5
REMARK    2  A    between atoms: _5  and  _6
REMARK    3  A    between atoms: _5  and  _8
REMARK    4  A    between atoms: _8  and  _9
REMARK    5  A    between atoms: _12  and  _14
REMARK    6  A    between atoms: _14  and  _15
REMARK    7  A    between atoms: _14  and  _17
REMARK    8  A    between atoms: _20  and  _22
REMARK    9  A    between atoms: _22  and  _23
REMARK   10  A    between atoms: _22  and  _25
REMARK   11  A    between atoms: _25  and  _26
REMARK   12  A    between atoms: _31  and  _33
REMARK   13  A    between atoms: _33  and  _34
REMARK   14  A    between atoms: _33  and  _36
REMARK   15  A    between atoms: _36  and  _37
REMARK   16  A    between atoms: _37  and  _38
REMARK   17  A    between atoms: _43  and  _45
REMARK   18  A    between atoms: _45  and  _46
REMARK   19  A    between atoms: _45  and  _48
REMARK   20  A    between atoms: _48  and  _49
REMARK   21  A    between atoms: _55  and  _57
REMARK   22  A    between atoms: _57  and  _58
REMARK   23  A    between atoms: _57  and  _60
REMARK   24  A    between atoms: _60  and  _61
REMARK   25  A    between atoms: _64  and  _66
REMARK   26  A    between atoms: _66  and  _67
REMARK   27  A    between atoms: _66  and  _69
REMARK   28  A    between atoms: _69  and  _70
REMARK   29  A    between atoms: _70  and  _71
REMARK   30  A    between atoms: _71  and  _72
REMARK   31  A    between atoms: _72  and  _73
REMARK   32  A    between atoms: _77  and  _79
REMARK   33  A    between atoms: _79  and  _80
REMARK   34  A    between atoms: _79  and  _82
REMARK   35  A    between atoms: _82  and  _83
REMARK   36  A    between atoms: _83  and  _84
REMARK   37  A    between atoms: _87  and  _89
REMARK   38  A    between atoms: _89  and  _90
REMARK   39  A    between atoms: _89  and  _92
REMARK   40  A    between atoms: _92  and  _93
REMARK   41  A    between atoms: _96  and  _98
REMARK   42  A    between atoms: _98  and  _99
REMARK   43  A    between atoms: _98  and  _101
REMARK   44  A    between atoms: _101  and  _102
REMARK   45  A    between atoms: _107  and  _108
REMARK   46  A    between atoms: _110  and  _112
REMARK   47  A    between atoms: _112  and  _113
REMARK   48  A    between atoms: _112  and  _115
REMARK   49  A    between atoms: _115  and  _116
REMARK   50  A    between atoms: _119  and  _121
REMARK   51  A    between atoms: _121  and  _122
REMARK   52  A    between atoms: _121  and  _124
REMARK   53  A    between atoms: _124  and  _125
REMARK   54  A    between atoms: _128  and  _130
REMARK   55  A    between atoms: _130  and  _131
REMARK   56  A    between atoms: _130  and  _133
REMARK   57  A    between atoms: _136  and  _138
REMARK   58  A    between atoms: _138  and  _139
REMARK   59  A    between atoms: _138  and  _141
REMARK   60  A    between atoms: _141  and  _142
REMARK   61  A    between atoms: _142  and  _143
REMARK   62  A    between atoms: _143  and  _144
REMARK   63  A    between atoms: _153  and  _155
REMARK   64  A    between atoms: _155  and  _156
REMARK   65  A    between atoms: _155  and  _158
REMARK   66  A    between atoms: _158  and  _159
REMARK   67  A    between atoms: _162  and  _164
REMARK   68  A    between atoms: _164  and  _165
REMARK   69  A    between atoms: _164  and  _167
REMARK   70  A    between atoms: _167  and  _168
REMARK   71  A    between atoms: _173  and  _175
REMARK   72  A    between atoms: _175  and  _176
REMARK   73  A    between atoms: _175  and  _178
REMARK   74  A    between atoms: _178  and  _179
REMARK   75  A    between atoms: _179  and  _180
REMARK   76  A    between atoms: _183  and  _185
REMARK   77  A    between atoms: _185  and  _186
REMARK   78  A    between atoms: _185  and  _188
REMARK   79  A    between atoms: _188  and  _189
REMARK   80  A    between atoms: _189  and  _190
REMARK   81  A    between atoms: _190  and  _191
REMARK   82  A    between atoms: _191  and  _192
REMARK   83  A    between atoms: _196  and  _198
REMARK   84  A    between atoms: _198  and  _199
REMARK   85  A    between atoms: _201  and  _203
REMARK   86  A    between atoms: _203  and  _204
REMARK   87  A    between atoms: _203  and  _206
REMARK   88  A    between atoms: _209  and  _211
REMARK   89  A    between atoms: _211  and  _212
REMARK   90  A    between atoms: _211  and  _214
REMARK   91  A    between atoms: _214  and  _215
REMARK   92  A    between atoms: _217  and  _219
REMARK   93  A    between atoms: _219  and  _220
REMARK   94  A    between atoms: _219  and  _222
REMARK   95  A    between atoms: _222  and  _223
REMARK   96  A    between atoms: _225  and  _227
REMARK   97  A    between atoms: _227  and  _228
REMARK   98  A    between atoms: _227  and  _230
REMARK   99  A    between atoms: _230  and  _231
REMARK  100  A    between atoms: _237  and  _239
REMARK  101  A    between atoms: _239  and  _240
REMARK  102  A    between atoms: _239  and  _242
REMARK  103  A    between atoms: _242  and  _243
REMARK  104  A    between atoms: _246  and  _248
REMARK  105  A    between atoms: _248  and  _249
REMARK  106  A    between atoms: _248  and  _251
REMARK  107  A    between atoms: _251  and  _252
REMARK  108  A    between atoms: _255  and  _257
REMARK  109  A    between atoms: _257  and  _258
REMARK  110  A    between atoms: _257  and  _260
REMARK  111  A    between atoms: _260  and  _261
REMARK  112  A    between atoms: _264  and  _266
REMARK  113  A    between atoms: _266  and  _267
REMARK  114  A    between atoms: _266  and  _269
REMARK  115  A    between atoms: _269  and  _270
REMARK  116  A    between atoms: _270  and  _271
REMARK  117  A    between atoms: _273  and  _275
REMARK  118  A    between atoms: _275  and  _276
REMARK  119  A    between atoms: _275  and  _278
REMARK  120  A    between atoms: _278  and  _279
REMARK  121  A    between atoms: _285  and  _287
REMARK  122  A    between atoms: _287  and  _288
REMARK  123  A    between atoms: _287  and  _290
REMARK  124  A    between atoms: _292  and  _294
REMARK  125  A    between atoms: _294  and  _295
REMARK  126  A    between atoms: _298  and  _300
REMARK  127  A    between atoms: _300  and  _301
REMARK  128  A    between atoms: _303  and  _305
REMARK  129  A    between atoms: _305  and  _306
REMARK  130  A    between atoms: _305  and  _308
REMARK  131  A    between atoms: _308  and  _309
REMARK  132  A    between atoms: _309  and  _310
REMARK  133  A    between atoms: _313  and  _315
REMARK  134  A    between atoms: _315  and  _316
REMARK  135  A    between atoms: _315  and  _318
REMARK  136  A    between atoms: _318  and  _319
REMARK  137  A    between atoms: _322  and  _324
REMARK  138  A    between atoms: _324  and  _325
REMARK  139  A    between atoms: _328  and  _330
REMARK  140  A    between atoms: _330  and  _331
REMARK  141  A    between atoms: _330  and  _333
REMARK  142  A    between atoms: _333  and  _334
REMARK  143  A    between atoms: _334  and  _457
REMARK  144  A    between atoms: _335  and  _337
REMARK  145  A    between atoms: _337  and  _338
REMARK  146  A    between atoms: _337  and  _340
REMARK  147  A    between atoms: _340  and  _341
REMARK  148  A    between atoms: _341  and  _342
REMARK  149  A    between atoms: _347  and  _349
REMARK  150  A    between atoms: _349  and  _350
REMARK  151  A    between atoms: _352  and  _354
REMARK  152  A    between atoms: _354  and  _355
REMARK  153  A    between atoms: _354  and  _357
REMARK  154  A    between atoms: _357  and  _358
REMARK  155  A    between atoms: _361  and  _363
REMARK  156  A    between atoms: _363  and  _364
REMARK  157  A    between atoms: _363  and  _366
REMARK  158  A    between atoms: _366  and  _367
REMARK  159  A    between atoms: _369  and  _371
REMARK  160  A    between atoms: _371  and  _372
REMARK  161  A    between atoms: _374  and  _376
REMARK  162  A    between atoms: _376  and  _377
REMARK  163  A    between atoms: _379  and  _381
REMARK  164  A    between atoms: _381  and  _382
REMARK  165  A    between atoms: _381  and  _384
REMARK  166  A    between atoms: _384  and  _385
REMARK  167  A    between atoms: _390  and  _392
REMARK  168  A    between atoms: _392  and  _393
REMARK  169  A    between atoms: _392  and  _395
REMARK  170  A    between atoms: _395  and  _396
REMARK  171  A    between atoms: _399  and  _401
REMARK  172  A    between atoms: _401  and  _402
REMARK  173  A    between atoms: _401  and  _404
REMARK  174  A    between atoms: _407  and  _409
REMARK  175  A    between atoms: _409  and  _410
REMARK  176  A    between atoms: _409  and  _412
REMARK  177  A    between atoms: _412  and  _413
REMARK  178  A    between atoms: _415  and  _417
REMARK  179  A    between atoms: _417  and  _418
REMARK  180  A    between atoms: _417  and  _420
REMARK  181  A    between atoms: _420  and  _421
REMARK  182  A    between atoms: _431  and  _433
REMARK  183  A    between atoms: _433  and  _434
REMARK  184  A    between atoms: _436  and  _438
REMARK  185  A    between atoms: _438  and  _439
REMARK  186  A    between atoms: _438  and  _441
REMARK  187  A    between atoms: _441  and  _442
REMARK  188  A    between atoms: _442  and  _443
REMARK  189  A    between atoms: _446  and  _448
REMARK  190  A    between atoms: _448  and  _449
REMARK  191  A    between atoms: _451  and  _453
REMARK  192  A    between atoms: _453  and  _454
REMARK  193  A    between atoms: _453  and  _456
REMARK  194  A    between atoms: _456  and  _457
REMARK  195  A    between atoms: _458  and  _460
REMARK  196  A    between atoms: _460  and  _461
REMARK  197  A    between atoms: _464  and  _466
REMARK  198  A    between atoms: _466  and  _467
REMARK  199  A    between atoms: _466  and  _469
REMARK  200  A    between atoms: _469  and  _470
REMARK  201  A    between atoms: _470  and  _471
REMARK  202  A    between atoms: _471  and  _472
REMARK  203  A    between atoms: _481  and  _483
REMARK  204  A    between atoms: _483  and  _484
REMARK  205  A    between atoms: _483  and  _486
REMARK  206  A    between atoms: _486  and  _487
REMARK  207  A    between atoms: _487  and  _488
REMARK  208  A    between atoms: _488  and  _489
REMARK  209  A    between atoms: _489  and  _490
REMARK  210  A    between atoms: _494  and  _496
REMARK  211  A    between atoms: _496  and  _497
REMARK  212  A    between atoms: _496  and  _499
REMARK  213  A    between atoms: _499  and  _500
REMARK  214  A    between atoms: _505  and  _506
REMARK  215  A    between atoms: _508  and  _510
REMARK  216  A    between atoms: _510  and  _511
REMARK  217  A    between atoms: _513  and  _515
REMARK  218  A    between atoms: _515  and  _516
REMARK  219  A    between atoms: _515  and  _518
REMARK  220  A    between atoms: _518  and  _519
REMARK  221  A    between atoms: _522  and  _524
REMARK  222  A    between atoms: _524  and  _525
REMARK  223  A    between atoms: _524  and  _527
REMARK  224  A    between atoms: _527  and  _528
REMARK  225  A    between atoms: _533  and  _534
REMARK  226  A    between atoms: _536  and  _538
REMARK  227  A    between atoms: _538  and  _539
REMARK  228  A    between atoms: _538  and  _541
REMARK  229  A    between atoms: _541  and  _542
REMARK                            x       y       z     vdW  Elec       q    Type
REMARK                         _______ _______ _______ _____ _____    ______ ____
ROOT
ATOM      1  O   HOH     1       4.166  58.700  -0.449  0.00  0.00    +0.000 OA
ENDROOT
TORSDOF 0
REMARK  Name = ../refined-set-2016/2xbw/2xbw_pocket.pdb
REMARK  229 active torsions:
REMARK  status: ('A' for Active; 'I' for Inactive)
REMARK    1  A    between atoms: _1  and  _5
REMARK    2  A    between atoms: _5  and  _6
REMARK    3  A    between atoms: _5  and  _8
REMARK    4  A    between atoms: _8  and  _9
REMARK    5  A    between atoms: _12  and  _14
REMARK    6  A    between atoms: _14  and  _15
REMARK    7  A    between atoms: _14  and  _17
REMARK    8  A    between atoms: _20  and  _22
REMARK    9  A    between atoms: _22  and  _23
REMARK   10  A    between atoms: _22  and  _25
REMARK   11  A    between atoms: _25  and  _26
REMARK   12  A    between atoms: _31  and  _33
REMARK   13  A    between atoms: _33  and  _34
REMARK   14  A    between atoms: _33  and  _36
REMARK   15  A    between atoms: _36  and  _37
REMARK   16  A    between atoms: _37  and  _38
REMARK   17  A    between atoms: _43  and  _45
REMARK   18  A    between atoms: _45  and  _46
REMARK   19  A    between atoms: _45  and  _48
REMARK   20  A    between atoms: _48  and  _49
REMARK   21  A    between atoms: _55  and  _57
REMARK   22  A    between atoms: _57  and  _58
REMARK   23  A    between atoms: _57  and  _60
REMARK   24  A    between atoms: _60  and  _61
REMARK   25  A    between atoms: _64  and  _66
REMARK   26  A    between atoms: _66  and  _67
REMARK   27  A    between atoms: _66  and  _69
REMARK   28  A    between atoms: _69  and  _70
REMARK   29  A    between atoms: _70  and  _71
REMARK   30  A    between atoms: _71  and  _72
REMARK   31  A    between atoms: _72  and  _73
REMARK   32  A    between atoms: _77  and  _79
REMARK   33  A    between atoms: _79  and  _80
REMARK   34  A    between atoms: _79  and  _82
REMARK   35  A    between atoms: _82  and  _83
REMARK   36  A    between atoms: _83  and  _84
REMARK   37  A    between atoms: _87  and  _89
REMARK   38  A    between atoms: _89  and  _90
REMARK   39  A    between atoms: _89  and  _92
REMARK   40  A    between atoms: _92  and  _93
REMARK   41  A    between atoms: _96  and  _98
REMARK   42  A    between atoms: _98  and  _99
REMARK   43  A    between atoms: _98  and  _101
REMARK   44  A    between atoms: _101  and  _102
REMARK   45  A    between atoms: _107  and  _108
REMARK   46  A    between atoms: _110  and  _112
REMARK   47  A    between atoms: _112  and  _113
REMARK   48  A    between atoms: _112  and  _115
REMARK   49  A    between atoms: _115  and  _116
REMARK   50  A    between atoms: _119  and  _121
REMARK   51  A    between atoms: _121  and  _122
REMARK   52  A    between atoms: _121  and  _124
REMARK   53  A    between atoms: _124  and  _125
REMARK   54  A    between atoms: _128  and  _130
REMARK   55  A    between atoms: _130  and  _131
REMARK   56  A    between atoms: _130  and  _133
REMARK   57  A    between atoms: _136  and  _138
REMARK   58  A    between atoms: _138  and  _139
REMARK   59  A    between atoms: _138  and  _141
REMARK   60  A    between atoms: _141  and  _142
REMARK   61  A    between atoms: _142  and  _143
REMARK   62  A    between atoms: _143  and  _144
REMARK   63  A    between atoms: _153  and  _155
REMARK   64  A    between atoms: _155  and  _156
REMARK   65  A    between atoms: _155  and  _158
REMARK   66  A    between atoms: _158  and  _159
REMARK   67  A    between atoms: _162  and  _164
REMARK   68  A    between atoms: _164  and  _165
REMARK   69  A    between atoms: _164  and  _167
REMARK   70  A    between atoms: _167  and  _168
REMARK   71  A    between atoms: _173  and  _175
REMARK   72  A    between atoms: _175  and  _176
REMARK   73  A    between atoms: _175  and  _178
REMARK   74  A    between atoms: _178  and  _179
REMARK   75  A    between atoms: _179  and  _180
REMARK   76  A    between atoms: _183  and  _185
REMARK   77  A    between atoms: _185  and  _186
REMARK   78  A    between atoms: _185  and  _188
REMARK   79  A    between atoms: _188  and  _189
REMARK   80  A    between atoms: _189  and  _190
REMARK   81  A    between atoms: _190  and  _191
REMARK   82  A    between atoms: _191  and  _192
REMARK   83  A    between atoms: _196  and  _198
REMARK   84  A    between atoms: _198  and  _199
REMARK   85  A    between atoms: _201  and  _203
REMARK   86  A    between atoms: _203  and  _204
REMARK   87  A    between atoms: _203  and  _206
REMARK   88  A    between atoms: _209  and  _211
REMARK   89  A    between atoms: _211  and  _212
REMARK   90  A    between atoms: _211  and  _214
REMARK   91  A    between atoms: _214  and  _215
REMARK   92  A    between atoms: _217  and  _219
REMARK   93  A    between atoms: _219  and  _220
REMARK   94  A    between atoms: _219  and  _222
REMARK   95  A    between atoms: _222  and  _223
REMARK   96  A    between atoms: _225  and  _227
REMARK   97  A    between atoms: _227  and  _228
REMARK   98  A    between atoms: _227  and  _230
REMARK   99  A    between atoms: _230  and  _231
REMARK  100  A    between atoms: _237  and  _239
REMARK  101  A    between atoms: _239  and  _240
REMARK  102  A    between atoms: _239  and  _242
REMARK  103  A    between atoms: _242  and  _243
REMARK  104  A    between atoms: _246  and  _248
REMARK  105  A    between atoms: _248  and  _249
REMARK  106  A    between atoms: _248  and  _251
REMARK  107  A    between atoms: _251  and  _252
REMARK  108  A    between atoms: _255  and  _257
REMARK  109  A    between atoms: _257  and  _258
REMARK  110  A    between atoms: _257  and  _260
REMARK  111  A    between atoms: _260  and  _261
REMARK  112  A    between atoms: _264  and  _266
REMARK  113  A    between atoms: _266  and  _267
REMARK  114  A    between atoms: _266  and  _269
REMARK  115  A    between atoms: _269  and  _270
REMARK  116  A    between atoms: _270  and  _271
REMARK  117  A    between atoms: _273  and  _275
REMARK  118  A    between atoms: _275  and  _276
REMARK  119  A    between atoms: _275  and  _278
REMARK  120  A    between atoms: _278  and  _279
REMARK  121  A    between atoms: _285  and  _287
REMARK  122  A    between atoms: _287  and  _288
REMARK  123  A    between atoms: _287  and  _290
REMARK  124  A    between atoms: _292  and  _294
REMARK  125  A    between atoms: _294  and  _295
REMARK  126  A    between atoms: _298  and  _300
REMARK  127  A    between atoms: _300  and  _301
REMARK  128  A    between atoms: _303  and  _305
REMARK  129  A    between atoms: _305  and  _306
REMARK  130  A    between atoms: _305  and  _308
REMARK  131  A    between atoms: _308  and  _309
REMARK  132  A    between atoms: _309  and  _310
REMARK  133  A    between atoms: _313  and  _315
REMARK  134  A    between atoms: _315  and  _316
REMARK  135  A    between atoms: _315  and  _318
REMARK  136  A    between atoms: _318  and  _319
REMARK  137  A    between atoms: _322  and  _324
REMARK  138  A    between atoms: _324  and  _325
REMARK  139  A    between atoms: _328  and  _330
REMARK  140  A    between atoms: _330  and  _331
REMARK  141  A    between atoms: _330  and  _333
REMARK  142  A    between atoms: _333  and  _334
REMARK  143  A    between atoms: _334  and  _457
REMARK  144  A    between atoms: _335  and  _337
REMARK  145  A    between atoms: _337  and  _338
REMARK  146  A    between atoms: _337  and  _340
REMARK  147  A    between atoms: _340  and  _341
REMARK  148  A    between atoms: _341  and  _342
REMARK  149  A    between atoms: _347  and  _349
REMARK  150  A    between atoms: _349  and  _350
REMARK  151  A    between atoms: _352  and  _354
REMARK  152  A    between atoms: _354  and  _355
REMARK  153  A    between atoms: _354  and  _357
REMARK  154  A    between atoms: _357  and  _358
REMARK  155  A    between atoms: _361  and  _363
REMARK  156  A    between atoms: _363  and  _364
REMARK  157  A    between atoms: _363  and  _366
REMARK  158  A    between atoms: _366  and  _367
REMARK  159  A    between atoms: _369  and  _371
REMARK  160  A    between atoms: _371  and  _372
REMARK  161  A    between atoms: _374  and  _376
REMARK  162  A    between atoms: _376  and  _377
REMARK  163  A    between atoms: _379  and  _381
REMARK  164  A    between atoms: _381  and  _382
REMARK  165  A    between atoms: _381  and  _384
REMARK  166  A    between atoms: _384  and  _385
REMARK  167  A    between atoms: _390  and  _392
REMARK  168  A    between atoms: _392  and  _393
REMARK  169  A    between atoms: _392  and  _395
REMARK  170  A    between atoms: _395  and  _396
REMARK  171  A    between atoms: _399  and  _401
REMARK  172  A    between atoms: _401  and  _402
REMARK  173  A    between atoms: _401  and  _404
REMARK  174  A    between atoms: _407  and  _409
REMARK  175  A    between atoms: _409  and  _410
REMARK  176  A    between atoms: _409  and  _412
REMARK  177  A    between atoms: _412  and  _413
REMARK  178  A    between atoms: _415  and  _417
REMARK  179  A    between atoms: _417  and  _418
REMARK  180  A    between atoms: _417  and  _420
REMARK  181  A    between atoms: _420  and  _421
REMARK  182  A    between atoms: _431  and  _433
REMARK  183  A    between atoms: _433  and  _434
REMARK  184  A    between atoms: _436  and  _438
REMARK  185  A    between atoms: _438  and  _439
REMARK  186  A    between atoms: _438  and  _441
REMARK  187  A    between atoms: _441  and  _442
REMARK  188  A    between atoms: _442  and  _443
REMARK  189  A    between atoms: _446  and  _448
REMARK  190  A    between atoms: _448  and  _449
REMARK  191  A    between atoms: _451  and  _453
REMARK  192  A    between atoms: _453  and  _454
REMARK  193  A    between atoms: _453  and  _456
REMARK  194  A    between atoms: _456  and  _457
REMARK  195  A    between atoms: _458  and  _460
REMARK  196  A    between atoms: _460  and  _461
REMARK  197  A    between atoms: _464  and  _466
REMARK  198  A    between atoms: _466  and  _467
REMARK  199  A    between atoms: _466  and  _469
REMARK  200  A    between atoms: _469  and  _470
REMARK  201  A    between atoms: _470  and  _471
REMARK  202  A    between atoms: _471  and  _472
REMARK  203  A    between atoms: _481  and  _483
REMARK  204  A    between atoms: _483  and  _484
REMARK  205  A    between atoms: _483  and  _486
REMARK  206  A    between atoms: _486  and  _487
REMARK  207  A    between atoms: _487  and  _488
REMARK  208  A    between atoms: _488  and  _489
REMARK  209  A    between atoms: _489  and  _490
REMARK  210  A    between atoms: _494  and  _496
REMARK  211  A    between atoms: _496  and  _497
REMARK  212  A    between atoms: _496  and  _499
REMARK  213  A    between atoms: _499  and  _500
REMARK  214  A    between atoms: _505  and  _506
REMARK  215  A    between atoms: _508  and  _510
REMARK  216  A    between atoms: _510  and  _511
REMARK  217  A    between atoms: _513  and  _515
REMARK  218  A    between atoms: _515  and  _516
REMARK  219  A    between atoms: _515  and  _518
REMARK  220  A    between atoms: _518  and  _519
REMARK  221  A    between atoms: _522  and  _524
REMARK  222  A    between atoms: _524  and  _525
REMARK  223  A    between atoms: _524  and  _527
REMARK  224  A    between atoms: _527  and  _528
REMARK  225  A    between atoms: _533  and  _534
REMARK  226  A    between atoms: _536  and  _538
REMARK  227  A    between atoms: _538  and  _539
REMARK  228  A    between atoms: _538  and  _541
REMARK  229  A    between atoms: _541  and  _542
REMARK                            x       y       z     vdW  Elec       q    Type
REMARK                         _______ _______ _______ _____ _____    ______ ____
ROOT
ATOM      1  O   HOH     1       5.814  70.276   1.856  0.00  0.00    +0.000 OA
ENDROOT
TORSDOF 0
REMARK  Name = ../refined-set-2016/2xbw/2xbw_pocket.pdb
REMARK  229 active torsions:
REMARK  status: ('A' for Active; 'I' for Inactive)
REMARK    1  A    between atoms: _1  and  _5
REMARK    2  A    between atoms: _5  and  _6
REMARK    3  A    between atoms: _5  and  _8
REMARK    4  A    between atoms: _8  and  _9
REMARK    5  A    between atoms: _12  and  _14
REMARK    6  A    between atoms: _14  and  _15
REMARK    7  A    between atoms: _14  and  _17
REMARK    8  A    between atoms: _20  and  _22
REMARK    9  A    between atoms: _22  and  _23
REMARK   10  A    between atoms: _22  and  _25
REMARK   11  A    between atoms: _25  and  _26
REMARK   12  A    between atoms: _31  and  _33
REMARK   13  A    between atoms: _33  and  _34
REMARK   14  A    between atoms: _33  and  _36
REMARK   15  A    between atoms: _36  and  _37
REMARK   16  A    between atoms: _37  and  _38
REMARK   17  A    between atoms: _43  and  _45
REMARK   18  A    between atoms: _45  and  _46
REMARK   19  A    between atoms: _45  and  _48
REMARK   20  A    between atoms: _48  and  _49
REMARK   21  A    between atoms: _55  and  _57
REMARK   22  A    between atoms: _57  and  _58
REMARK   23  A    between atoms: _57  and  _60
REMARK   24  A    between atoms: _60  and  _61
REMARK   25  A    between atoms: _64  and  _66
REMARK   26  A    between atoms: _66  and  _67
REMARK   27  A    between atoms: _66  and  _69
REMARK   28  A    between atoms: _69  and  _70
REMARK   29  A    between atoms: _70  and  _71
REMARK   30  A    between atoms: _71  and  _72
REMARK   31  A    between atoms: _72  and  _73
REMARK   32  A    between atoms: _77  and  _79
REMARK   33  A    between atoms: _79  and  _80
REMARK   34  A    between atoms: _79  and  _82
REMARK   35  A    between atoms: _82  and  _83
REMARK   36  A    between atoms: _83  and  _84
REMARK   37  A    between atoms: _87  and  _89
REMARK   38  A    between atoms: _89  and  _90
REMARK   39  A    between atoms: _89  and  _92
REMARK   40  A    between atoms: _92  and  _93
REMARK   41  A    between atoms: _96  and  _98
REMARK   42  A    between atoms: _98  and  _99
REMARK   43  A    between atoms: _98  and  _101
REMARK   44  A    between atoms: _101  and  _102
REMARK   45  A    between atoms: _107  and  _108
REMARK   46  A    between atoms: _110  and  _112
REMARK   47  A    between atoms: _112  and  _113
REMARK   48  A    between atoms: _112  and  _115
REMARK   49  A    between atoms: _115  and  _116
REMARK   50  A    between atoms: _119  and  _121
REMARK   51  A    between atoms: _121  and  _122
REMARK   52  A    between atoms: _121  and  _124
REMARK   53  A    between atoms: _124  and  _125
REMARK   54  A    between atoms: _128  and  _130
REMARK   55  A    between atoms: _130  and  _131
REMARK   56  A    between atoms: _130  and  _133
REMARK   57  A    between atoms: _136  and  _138
REMARK   58  A    between atoms: _138  and  _139
REMARK   59  A    between atoms: _138  and  _141
REMARK   60  A    between atoms: _141  and  _142
REMARK   61  A    between atoms: _142  and  _143
REMARK   62  A    between atoms: _143  and  _144
REMARK   63  A    between atoms: _153  and  _155
REMARK   64  A    between atoms: _155  and  _156
REMARK   65  A    between atoms: _155  and  _158
REMARK   66  A    between atoms: _158  and  _159
REMARK   67  A    between atoms: _162  and  _164
REMARK   68  A    between atoms: _164  and  _165
REMARK   69  A    between atoms: _164  and  _167
REMARK   70  A    between atoms: _167  and  _168
REMARK   71  A    between atoms: _173  and  _175
REMARK   72  A    between atoms: _175  and  _176
REMARK   73  A    between atoms: _175  and  _178
REMARK   74  A    between atoms: _178  and  _179
REMARK   75  A    between atoms: _179  and  _180
REMARK   76  A    between atoms: _183  and  _185
REMARK   77  A    between atoms: _185  and  _186
REMARK   78  A    between atoms: _185  and  _188
REMARK   79  A    between atoms: _188  and  _189
REMARK   80  A    between atoms: _189  and  _190
REMARK   81  A    between atoms: _190  and  _191
REMARK   82  A    between atoms: _191  and  _192
REMARK   83  A    between atoms: _196  and  _198
REMARK   84  A    between atoms: _198  and  _199
REMARK   85  A    between atoms: _201  and  _203
REMARK   86  A    between atoms: _203  and  _204
REMARK   87  A    between atoms: _203  and  _206
REMARK   88  A    between atoms: _209  and  _211
REMARK   89  A    between atoms: _211  and  _212
REMARK   90  A    between atoms: _211  and  _214
REMARK   91  A    between atoms: _214  and  _215
REMARK   92  A    between atoms: _217  and  _219
REMARK   93  A    between atoms: _219  and  _220
REMARK   94  A    between atoms: _219  and  _222
REMARK   95  A    between atoms: _222  and  _223
REMARK   96  A    between atoms: _225  and  _227
REMARK   97  A    between atoms: _227  and  _228
REMARK   98  A    between atoms: _227  and  _230
REMARK   99  A    between atoms: _230  and  _231
REMARK  100  A    between atoms: _237  and  _239
REMARK  101  A    between atoms: _239  and  _240
REMARK  102  A    between atoms: _239  and  _242
REMARK  103  A    between atoms: _242  and  _243
REMARK  104  A    between atoms: _246  and  _248
REMARK  105  A    between atoms: _248  and  _249
REMARK  106  A    between atoms: _248  and  _251
REMARK  107  A    between atoms: _251  and  _252
REMARK  108  A    between atoms: _255  and  _257
REMARK  109  A    between atoms: _257  and  _258
REMARK  110  A    between atoms: _257  and  _260
REMARK  111  A    between atoms: _260  and  _261
REMARK  112  A    between atoms: _264  and  _266
REMARK  113  A    between atoms: _266  and  _267
REMARK  114  A    between atoms: _266  and  _269
REMARK  115  A    between atoms: _269  and  _270
REMARK  116  A    between atoms: _270  and  _271
REMARK  117  A    between atoms: _273  and  _275
REMARK  118  A    between atoms: _275  and  _276
REMARK  119  A    between atoms: _275  and  _278
REMARK  120  A    between atoms: _278  and  _279
REMARK  121  A    between atoms: _285  and  _287
REMARK  122  A    between atoms: _287  and  _288
REMARK  123  A    between atoms: _287  and  _290
REMARK  124  A    between atoms: _292  and  _294
REMARK  125  A    between atoms: _294  and  _295
REMARK  126  A    between atoms: _298  and  _300
REMARK  127  A    between atoms: _300  and  _301
REMARK  128  A    between atoms: _303  and  _305
REMARK  129  A    between atoms: _305  and  _306
REMARK  130  A    between atoms: _305  and  _308
REMARK  131  A    between atoms: _308  and  _309
REMARK  132  A    between atoms: _309  and  _310
REMARK  133  A    between atoms: _313  and  _315
REMARK  134  A    between atoms: _315  and  _316
REMARK  135  A    between atoms: _315  and  _318
REMARK  136  A    between atoms: _318  and  _319
REMARK  137  A    between atoms: _322  and  _324
REMARK  138  A    between atoms: _324  and  _325
REMARK  139  A    between atoms: _328  and  _330
REMARK  140  A    between atoms: _330  and  _331
REMARK  141  A    between atoms: _330  and  _333
REMARK  142  A    between atoms: _333  and  _334
REMARK  143  A    between atoms: _334  and  _457
REMARK  144  A    between atoms: _335  and  _337
REMARK  145  A    between atoms: _337  and  _338
REMARK  146  A    between atoms: _337  and  _340
REMARK  147  A    between atoms: _340  and  _341
REMARK  148  A    between atoms: _341  and  _342
REMARK  149  A    between atoms: _347  and  _349
REMARK  150  A    between atoms: _349  and  _350
REMARK  151  A    between atoms: _352  and  _354
REMARK  152  A    between atoms: _354  and  _355
REMARK  153  A    between atoms: _354  and  _357
REMARK  154  A    between atoms: _357  and  _358
REMARK  155  A    between atoms: _361  and  _363
REMARK  156  A    between atoms: _363  and  _364
REMARK  157  A    between atoms: _363  and  _366
REMARK  158  A    between atoms: _366  and  _367
REMARK  159  A    between atoms: _369  and  _371
REMARK  160  A    between atoms: _371  and  _372
REMARK  161  A    between atoms: _374  and  _376
REMARK  162  A    between atoms: _376  and  _377
REMARK  163  A    between atoms: _379  and  _381
REMARK  164  A    between atoms: _381  and  _382
REMARK  165  A    between atoms: _381  and  _384
REMARK  166  A    between atoms: _384  and  _385
REMARK  167  A    between atoms: _390  and  _392
REMARK  168  A    between atoms: _392  and  _393
REMARK  169  A    between atoms: _392  and  _395
REMARK  170  A    between atoms: _395  and  _396
REMARK  171  A    between atoms: _399  and  _401
REMARK  172  A    between atoms: _401  and  _402
REMARK  173  A    between atoms: _401  and  _404
REMARK  174  A    between atoms: _407  and  _409
REMARK  175  A    between atoms: _409  and  _410
REMARK  176  A    between atoms: _409  and  _412
REMARK  177  A    between atoms: _412  and  _413
REMARK  178  A    between atoms: _415  and  _417
REMARK  179  A    between atoms: _417  and  _418
REMARK  180  A    between atoms: _417  and  _420
REMARK  181  A    between atoms: _420  and  _421
REMARK  182  A    between atoms: _431  and  _433
REMARK  183  A    between atoms: _433  and  _434
REMARK  184  A    between atoms: _436  and  _438
REMARK  185  A    between atoms: _438  and  _439
REMARK  186  A    between atoms: _438  and  _441
REMARK  187  A    between atoms: _441  and  _442
REMARK  188  A    between atoms: _442  and  _443
REMARK  189  A    between atoms: _446  and  _448
REMARK  190  A    between atoms: _448  and  _449
REMARK  191  A    between atoms: _451  and  _453
REMARK  192  A    between atoms: _453  and  _454
REMARK  193  A    between atoms: _453  and  _456
REMARK  194  A    between atoms: _456  and  _457
REMARK  195  A    between atoms: _458  and  _460
REMARK  196  A    between atoms: _460  and  _461
REMARK  197  A    between atoms: _464  and  _466
REMARK  198  A    between atoms: _466  and  _467
REMARK  199  A    between atoms: _466  and  _469
REMARK  200  A    between atoms: _469  and  _470
REMARK  201  A    between atoms: _470  and  _471
REMARK  202  A    between atoms: _471  and  _472
REMARK  203  A    between atoms: _481  and  _483
REMARK  204  A    between atoms: _483  and  _484
REMARK  205  A    between atoms: _483  and  _486
REMARK  206  A    between atoms: _486  and  _487
REMARK  207  A    between atoms: _487  and  _488
REMARK  208  A    between atoms: _488  and  _489
REMARK  209  A    between atoms: _489  and  _490
REMARK  210  A    between atoms: _494  and  _496
REMARK  211  A    between atoms: _496  and  _497
REMARK  212  A    between atoms: _496  and  _499
REMARK  213  A    between atoms: _499  and  _500
REMARK  214  A    between atoms: _505  and  _506
REMARK  215  A    between atoms: _508  and  _510
REMARK  216  A    between atoms: _510  and  _511
REMARK  217  A    between atoms: _513  and  _515
REMARK  218  A    between atoms: _515  and  _516
REMARK  219  A    between atoms: _515  and  _518
REMARK  220  A    between atoms: _518  and  _519
REMARK  221  A    between atoms: _522  and  _524
REMARK  222  A    between atoms: _524  and  _525
REMARK  223  A    between atoms: _524  and  _527
REMARK  224  A    between atoms: _527  and  _528
REMARK  225  A    between atoms: _533  and  _534
REMARK  226  A    between atoms: _536  and  _538
REMARK  227  A    between atoms: _538  and  _539
REMARK  228  A    between atoms: _538  and  _541
REMARK  229  A    between atoms: _541  and  _542
REMARK                            x       y       z     vdW  Elec       q    Type
REMARK                         _______ _______ _______ _____ _____    ______ ____
ROOT
ATOM      1  O   HOH     1       6.226  66.689   5.585  0.00  0.00    +0.000 OA
ENDROOT
TORSDOF 0
REMARK  Name = ../refined-set-2016/2xbw/2xbw_pocket.pdb
REMARK  229 active torsions:
REMARK  status: ('A' for Active; 'I' for Inactive)
REMARK    1  A    between atoms: _1  and  _5
REMARK    2  A    between atoms: _5  and  _6
REMARK    3  A    between atoms: _5  and  _8
REMARK    4  A    between atoms: _8  and  _9
REMARK    5  A    between atoms: _12  and  _14
REMARK    6  A    between atoms: _14  and  _15
REMARK    7  A    between atoms: _14  and  _17
REMARK    8  A    between atoms: _20  and  _22
REMARK    9  A    between atoms: _22  and  _23
REMARK   10  A    between atoms: _22  and  _25
REMARK   11  A    between atoms: _25  and  _26
REMARK   12  A    between atoms: _31  and  _33
REMARK   13  A    between atoms: _33  and  _34
REMARK   14  A    between atoms: _33  and  _36
REMARK   15  A    between atoms: _36  and  _37
REMARK   16  A    between atoms: _37  and  _38
REMARK   17  A    between atoms: _43  and  _45
REMARK   18  A    between atoms: _45  and  _46
REMARK   19  A    between atoms: _45  and  _48
REMARK   20  A    between atoms: _48  and  _49
REMARK   21  A    between atoms: _55  and  _57
REMARK   22  A    between atoms: _57  and  _58
REMARK   23  A    between atoms: _57  and  _60
REMARK   24  A    between atoms: _60  and  _61
REMARK   25  A    between atoms: _64  and  _66
REMARK   26  A    between atoms: _66  and  _67
REMARK   27  A    between atoms: _66  and  _69
REMARK   28  A    between atoms: _69  and  _70
REMARK   29  A    between atoms: _70  and  _71
REMARK   30  A    between atoms: _71  and  _72
REMARK   31  A    between atoms: _72  and  _73
REMARK   32  A    between atoms: _77  and  _79
REMARK   33  A    between atoms: _79  and  _80
REMARK   34  A    between atoms: _79  and  _82
REMARK   35  A    between atoms: _82  and  _83
REMARK   36  A    between atoms: _83  and  _84
REMARK   37  A    between atoms: _87  and  _89
REMARK   38  A    between atoms: _89  and  _90
REMARK   39  A    between atoms: _89  and  _92
REMARK   40  A    between atoms: _92  and  _93
REMARK   41  A    between atoms: _96  and  _98
REMARK   42  A    between atoms: _98  and  _99
REMARK   43  A    between atoms: _98  and  _101
REMARK   44  A    between atoms: _101  and  _102
REMARK   45  A    between atoms: _107  and  _108
REMARK   46  A    between atoms: _110  and  _112
REMARK   47  A    between atoms: _112  and  _113
REMARK   48  A    between atoms: _112  and  _115
REMARK   49  A    between atoms: _115  and  _116
REMARK   50  A    between atoms: _119  and  _121
REMARK   51  A    between atoms: _121  and  _122
REMARK   52  A    between atoms: _121  and  _124
REMARK   53  A    between atoms: _124  and  _125
REMARK   54  A    between atoms: _128  and  _130
REMARK   55  A    between atoms: _130  and  _131
REMARK   56  A    between atoms: _130  and  _133
REMARK   57  A    between atoms: _136  and  _138
REMARK   58  A    between atoms: _138  and  _139
REMARK   59  A    between atoms: _138  and  _141
REMARK   60  A    between atoms: _141  and  _142
REMARK   61  A    between atoms: _142  and  _143
REMARK   62  A    between atoms: _143  and  _144
REMARK   63  A    between atoms: _153  and  _155
REMARK   64  A    between atoms: _155  and  _156
REMARK   65  A    between atoms: _155  and  _158
REMARK   66  A    between atoms: _158  and  _159
REMARK   67  A    between atoms: _162  and  _164
REMARK   68  A    between atoms: _164  and  _165
REMARK   69  A    between atoms: _164  and  _167
REMARK   70  A    between atoms: _167  and  _168
REMARK   71  A    between atoms: _173  and  _175
REMARK   72  A    between atoms: _175  and  _176
REMARK   73  A    between atoms: _175  and  _178
REMARK   74  A    between atoms: _178  and  _179
REMARK   75  A    between atoms: _179  and  _180
REMARK   76  A    between atoms: _183  and  _185
REMARK   77  A    between atoms: _185  and  _186
REMARK   78  A    between atoms: _185  and  _188
REMARK   79  A    between atoms: _188  and  _189
REMARK   80  A    between atoms: _189  and  _190
REMARK   81  A    between atoms: _190  and  _191
REMARK   82  A    between atoms: _191  and  _192
REMARK   83  A    between atoms: _196  and  _198
REMARK   84  A    between atoms: _198  and  _199
REMARK   85  A    between atoms: _201  and  _203
REMARK   86  A    between atoms: _203  and  _204
REMARK   87  A    between atoms: _203  and  _206
REMARK   88  A    between atoms: _209  and  _211
REMARK   89  A    between atoms: _211  and  _212
REMARK   90  A    between atoms: _211  and  _214
REMARK   91  A    between atoms: _214  and  _215
REMARK   92  A    between atoms: _217  and  _219
REMARK   93  A    between atoms: _219  and  _220
REMARK   94  A    between atoms: _219  and  _222
REMARK   95  A    between atoms: _222  and  _223
REMARK   96  A    between atoms: _225  and  _227
REMARK   97  A    between atoms: _227  and  _228
REMARK   98  A    between atoms: _227  and  _230
REMARK   99  A    between atoms: _230  and  _231
REMARK  100  A    between atoms: _237  and  _239
REMARK  101  A    between atoms: _239  and  _240
REMARK  102  A    between atoms: _239  and  _242
REMARK  103  A    between atoms: _242  and  _243
REMARK  104  A    between atoms: _246  and  _248
REMARK  105  A    between atoms: _248  and  _249
REMARK  106  A    between atoms: _248  and  _251
REMARK  107  A    between atoms: _251  and  _252
REMARK  108  A    between atoms: _255  and  _257
REMARK  109  A    between atoms: _257  and  _258
REMARK  110  A    between atoms: _257  and  _260
REMARK  111  A    between atoms: _260  and  _261
REMARK  112  A    between atoms: _264  and  _266
REMARK  113  A    between atoms: _266  and  _267
REMARK  114  A    between atoms: _266  and  _269
REMARK  115  A    between atoms: _269  and  _270
REMARK  116  A    between atoms: _270  and  _271
REMARK  117  A    between atoms: _273  and  _275
REMARK  118  A    between atoms: _275  and  _276
REMARK  119  A    between atoms: _275  and  _278
REMARK  120  A    between atoms: _278  and  _279
REMARK  121  A    between atoms: _285  and  _287
REMARK  122  A    between atoms: _287  and  _288
REMARK  123  A    between atoms: _287  and  _290
REMARK  124  A    between atoms: _292  and  _294
REMARK  125  A    between atoms: _294  and  _295
REMARK  126  A    between atoms: _298  and  _300
REMARK  127  A    between atoms: _300  and  _301
REMARK  128  A    between atoms: _303  and  _305
REMARK  129  A    between atoms: _305  and  _306
REMARK  130  A    between atoms: _305  and  _308
REMARK  131  A    between atoms: _308  and  _309
REMARK  132  A    between atoms: _309  and  _310
REMARK  133  A    between atoms: _313  and  _315
REMARK  134  A    between atoms: _315  and  _316
REMARK  135  A    between atoms: _315  and  _318
REMARK  136  A    between atoms: _318  and  _319
REMARK  137  A    between atoms: _322  and  _324
REMARK  138  A    between atoms: _324  and  _325
REMARK  139  A    between atoms: _328  and  _330
REMARK  140  A    between atoms: _330  and  _331
REMARK  141  A    between atoms: _330  and  _333
REMARK  142  A    between atoms: _333  and  _334
REMARK  143  A    between atoms: _334  and  _457
REMARK  144  A    between atoms: _335  and  _337
REMARK  145  A    between atoms: _337  and  _338
REMARK  146  A    between atoms: _337  and  _340
REMARK  147  A    between atoms: _340  and  _341
REMARK  148  A    between atoms: _341  and  _342
REMARK  149  A    between atoms: _347  and  _349
REMARK  150  A    between atoms: _349  and  _350
REMARK  151  A    between atoms: _352  and  _354
REMARK  152  A    between atoms: _354  and  _355
REMARK  153  A    between atoms: _354  and  _357
REMARK  154  A    between atoms: _357  and  _358
REMARK  155  A    between atoms: _361  and  _363
REMARK  156  A    between atoms: _363  and  _364
REMARK  157  A    between atoms: _363  and  _366
REMARK  158  A    between atoms: _366  and  _367
REMARK  159  A    between atoms: _369  and  _371
REMARK  160  A    between atoms: _371  and  _372
REMARK  161  A    between atoms: _374  and  _376
REMARK  162  A    between atoms: _376  and  _377
REMARK  163  A    between atoms: _379  and  _381
REMARK  164  A    between atoms: _381  and  _382
REMARK  165  A    between atoms: _381  and  _384
REMARK  166  A    between atoms: _384  and  _385
REMARK  167  A    between atoms: _390  and  _392
REMARK  168  A    between atoms: _392  and  _393
REMARK  169  A    between atoms: _392  and  _395
REMARK  170  A    between atoms: _395  and  _396
REMARK  171  A    between atoms: _399  and  _401
REMARK  172  A    between atoms: _401  and  _402
REMARK  173  A    between atoms: _401  and  _404
REMARK  174  A    between atoms: _407  and  _409
REMARK  175  A    between atoms: _409  and  _410
REMARK  176  A    between atoms: _409  and  _412
REMARK  177  A    between atoms: _412  and  _413
REMARK  178  A    between atoms: _415  and  _417
REMARK  179  A    between atoms: _417  and  _418
REMARK  180  A    between atoms: _417  and  _420
REMARK  181  A    between atoms: _420  and  _421
REMARK  182  A    between atoms: _431  and  _433
REMARK  183  A    between atoms: _433  and  _434
REMARK  184  A    between atoms: _436  and  _438
REMARK  185  A    between atoms: _438  and  _439
REMARK  186  A    between atoms: _438  and  _441
REMARK  187  A    between atoms: _441  and  _442
REMARK  188  A    between atoms: _442  and  _443
REMARK  189  A    between atoms: _446  and  _448
REMARK  190  A    between atoms: _448  and  _449
REMARK  191  A    between atoms: _451  and  _453
REMARK  192  A    between atoms: _453  and  _454
REMARK  193  A    between atoms: _453  and  _456
REMARK  194  A    between atoms: _456  and  _457
REMARK  195  A    between atoms: _458  and  _460
REMARK  196  A    between atoms: _460  and  _461
REMARK  197  A    between atoms: _464  and  _466
REMARK  198  A    between atoms: _466  and  _467
REMARK  199  A    between atoms: _466  and  _469
REMARK  200  A    between atoms: _469  and  _470
REMARK  201  A    between atoms: _470  and  _471
REMARK  202  A    between atoms: _471  and  _472
REMARK  203  A    between atoms: _481  and  _483
REMARK  204  A    between atoms: _483  and  _484
REMARK  205  A    between atoms: _483  and  _486
REMARK  206  A    between atoms: _486  and  _487
REMARK  207  A    between atoms: _487  and  _488
REMARK  208  A    between atoms: _488  and  _489
REMARK  209  A    between atoms: _489  and  _490
REMARK  210  A    between atoms: _494  and  _496
REMARK  211  A    between atoms: _496  and  _497
REMARK  212  A    between atoms: _496  and  _499
REMARK  213  A    between atoms: _499  and  _500
REMARK  214  A    between atoms: _505  and  _506
REMARK  215  A    between atoms: _508  and  _510
REMARK  216  A    between atoms: _510  and  _511
REMARK  217  A    between atoms: _513  and  _515
REMARK  218  A    between atoms: _515  and  _516
REMARK  219  A    between atoms: _515  and  _518
REMARK  220  A    between atoms: _518  and  _519
REMARK  221  A    between atoms: _522  and  _524
REMARK  222  A    between atoms: _524  and  _525
REMARK  223  A    between atoms: _524  and  _527
REMARK  224  A    between atoms: _527  and  _528
REMARK  225  A    between atoms: _533  and  _534
REMARK  226  A    between atoms: _536  and  _538
REMARK  227  A    between atoms: _538  and  _539
REMARK  228  A    between atoms: _538  and  _541
REMARK  229  A    between atoms: _541  and  _542
REMARK                            x       y       z     vdW  Elec       q    Type
REMARK                         _______ _______ _______ _____ _____    ______ ____
ROOT
ATOM      1  O   HOH     1       7.921  65.896   0.340  0.00  0.00    +0.000 OA
ENDROOT
TORSDOF 0
