REMARK  Name = ../refined-set-2016/3d4y/3d4y_pocket.pdb
REMARK  141 active torsions:
REMARK  status: ('A' for Active; 'I' for Inactive)
REMARK    1  A    between atoms: _1  and  _3
REMARK    2  A    between atoms: _14  and  _17
REMARK    3  A    between atoms: _17  and  _18
REMARK    4  A    between atoms: _25  and  _26
REMARK    5  A    between atoms: _33  and  _34
REMARK    6  A    between atoms: _39  and  _41
REMARK    7  A    between atoms: _41  and  _42
REMARK    8  A    between atoms: _44  and  _46
REMARK    9  A    between atoms: _46  and  _47
REMARK   10  A    between atoms: _46  and  _49
REMARK   11  A    between atoms: _49  and  _50
REMARK   12  A    between atoms: _60  and  _62
REMARK   13  A    between atoms: _62  and  _63
REMARK   14  A    between atoms: _62  and  _65
REMARK   15  A    between atoms: _65  and  _66
REMARK   16  A    between atoms: _69  and  _71
REMARK   17  A    between atoms: _71  and  _72
REMARK   18  A    between atoms: _71  and  _74
REMARK   19  A    between atoms: _74  and  _75
REMARK   20  A    between atoms: _80  and  _81
REMARK   21  A    between atoms: _83  and  _85
REMARK   22  A    between atoms: _85  and  _86
REMARK   23  A    between atoms: _85  and  _88
REMARK   24  A    between atoms: _88  and  _89
REMARK   25  A    between atoms: _89  and  _90
REMARK   26  A    between atoms: _93  and  _95
REMARK   27  A    between atoms: _95  and  _96
REMARK   28  A    between atoms: _95  and  _98
REMARK   29  A    between atoms: _98  and  _99
REMARK   30  A    between atoms: _99  and  _100
REMARK   31  A    between atoms: _102  and  _104
REMARK   32  A    between atoms: _104  and  _105
REMARK   33  A    between atoms: _104  and  _107
REMARK   34  A    between atoms: _107  and  _108
REMARK   35  A    between atoms: _111  and  _113
REMARK   36  A    between atoms: _113  and  _114
REMARK   37  A    between atoms: _113  and  _116
REMARK   38  A    between atoms: _116  and  _117
REMARK   39  A    between atoms: _117  and  _119
REMARK   40  A    between atoms: _119  and  ZN_385
REMARK   41  A    between atoms: _121  and  _122
REMARK   42  A    between atoms: _127  and  _129
REMARK   43  A    between atoms: _129  and  _130
REMARK   44  A    between atoms: _129  and  _132
REMARK   45  A    between atoms: _132  and  _133
REMARK   46  A    between atoms: _139  and  _141
REMARK   47  A    between atoms: _141  and  _142
REMARK   48  A    between atoms: _141  and  _144
REMARK   49  A    between atoms: _144  and  _145
REMARK   50  A    between atoms: _145  and  _146
REMARK   51  A    between atoms: _146  and  _147
REMARK   52  A    between atoms: _156  and  _158
REMARK   53  A    between atoms: _158  and  _159
REMARK   54  A    between atoms: _158  and  _161
REMARK   55  A    between atoms: _161  and  _162
REMARK   56  A    between atoms: _167  and  _168
REMARK   57  A    between atoms: _170  and  _172
REMARK   58  A    between atoms: _172  and  _173
REMARK   59  A    between atoms: _172  and  _175
REMARK   60  A    between atoms: _175  and  _176
REMARK   61  A    between atoms: _178  and  _180
REMARK   62  A    between atoms: _180  and  _181
REMARK   63  A    between atoms: _180  and  _183
REMARK   64  A    between atoms: _183  and  _184
REMARK   65  A    between atoms: _189  and  _190
REMARK   66  A    between atoms: _192  and  _194
REMARK   67  A    between atoms: _194  and  _195
REMARK   68  A    between atoms: _194  and  _197
REMARK   69  A    between atoms: _197  and  _198
REMARK   70  A    between atoms: _201  and  _203
REMARK   71  A    between atoms: _203  and  _204
REMARK   72  A    between atoms: _203  and  _206
REMARK   73  A    between atoms: _206  and  _207
REMARK   74  A    between atoms: _210  and  _212
REMARK   75  A    between atoms: _212  and  _213
REMARK   76  A    between atoms: _212  and  _215
REMARK   77  A    between atoms: _215  and  _216
REMARK   78  A    between atoms: _222  and  _224
REMARK   79  A    between atoms: _224  and  _225
REMARK   80  A    between atoms: _224  and  _227
REMARK   81  A    between atoms: _227  and  _228
REMARK   82  A    between atoms: _233  and  _234
REMARK   83  A    between atoms: _236  and  _238
REMARK   84  A    between atoms: _238  and  _239
REMARK   85  A    between atoms: _238  and  _241
REMARK   86  A    between atoms: _241  and  _242
REMARK   87  A    between atoms: _245  and  _247
REMARK   88  A    between atoms: _247  and  _248
REMARK   89  A    between atoms: _247  and  _250
REMARK   90  A    between atoms: _250  and  _251
REMARK   91  A    between atoms: _261  and  _263
REMARK   92  A    between atoms: _263  and  _264
REMARK   93  A    between atoms: _263  and  _266
REMARK   94  A    between atoms: _266  and  _267
REMARK   95  A    between atoms: _272  and  _274
REMARK   96  A    between atoms: _274  and  _275
REMARK   97  A    between atoms: _274  and  _277
REMARK   98  A    between atoms: _277  and  _278
REMARK   99  A    between atoms: _282  and  ZN_385
REMARK  100  A    between atoms: _283  and  _285
REMARK  101  A    between atoms: _285  and  _286
REMARK  102  A    between atoms: _285  and  _288
REMARK  103  A    between atoms: _288  and  _289
REMARK  104  A    between atoms: _292  and  _294
REMARK  105  A    between atoms: _294  and  _295
REMARK  106  A    between atoms: _297  and  _299
REMARK  107  A    between atoms: _299  and  _300
REMARK  108  A    between atoms: _299  and  _302
REMARK  109  A    between atoms: _302  and  _303
REMARK  110  A    between atoms: _306  and  _308
REMARK  111  A    between atoms: _308  and  _309
REMARK  112  A    between atoms: _308  and  _311
REMARK  113  A    between atoms: _311  and  _312
REMARK  114  A    between atoms: _315  and  _317
REMARK  115  A    between atoms: _317  and  _318
REMARK  116  A    between atoms: _321  and  _323
REMARK  117  A    between atoms: _323  and  _324
REMARK  118  A    between atoms: _323  and  _326
REMARK  119  A    between atoms: _326  and  _327
REMARK  120  A    between atoms: _332  and  _333
REMARK  121  A    between atoms: _335  and  _337
REMARK  122  A    between atoms: _337  and  _338
REMARK  123  A    between atoms: _337  and  _340
REMARK  124  A    between atoms: _340  and  _341
REMARK  125  A    between atoms: _344  and  _346
REMARK  126  A    between atoms: _346  and  _347
REMARK  127  A    between atoms: _346  and  _349
REMARK  128  A    between atoms: _349  and  _350
REMARK  129  A    between atoms: _350  and  _351
REMARK  130  A    between atoms: _354  and  _356
REMARK  131  A    between atoms: _356  and  _357
REMARK  132  A    between atoms: _356  and  _359
REMARK  133  A    between atoms: _359  and  _360
REMARK  134  A    between atoms: _360  and  _361
REMARK  135  A    between atoms: _361  and  _362
REMARK  136  A    between atoms: _371  and  _373
REMARK  137  A    between atoms: _373  and  _374
REMARK  138  A    between atoms: _376  and  _378
REMARK  139  A    between atoms: _378  and  _379
REMARK  140  A    between atoms: _378  and  _381
REMARK  141  A    between atoms: _381  and  _382
REMARK                            x       y       z     vdW  Elec       q    Type
REMARK                         _______ _______ _______ _____ _____    ______ ____
ROOT
ATOM      1  C   UNK A   1      36.549  60.736  13.975  0.00  0.00    +0.000 C 
ATOM      2  C   UNK A   1      37.240  62.110  13.926  0.00  0.00    +0.000 C 
ATOM      3  O   UNK A   1      36.691  63.088  14.430  0.00  0.00    +0.000 OA
ATOM      4  N   UNK A   2      38.446  62.178  13.345  0.00  0.00    +0.000 N 
ATOM      5  C   UNK A   2      39.193  63.449  13.333  0.00  0.00    +0.000 C 
ATOM      6  C   UNK A   2      39.369  63.972  11.916  0.00  0.00    +0.000 C 
ATOM      7  N   UNK A   3      38.597  64.968  11.558  0.00  0.00    +0.000 N 
ATOM      8  H   UNK A   3      37.930  65.379  12.242  0.00  0.00    +0.000 HD
ATOM      9  C   UNK A   3      38.672  65.508  10.188  0.00  0.00    +0.000 C 
ATOM     10  C   UNK A   3      37.471  66.415   9.949  0.00  0.00    +0.000 C 
ATOM     11  C   UNK A   3      36.202  65.658   9.834  0.00  0.00    +0.000 C 
ATOM     12  O   UNK A   3      35.289  65.895  10.660  0.00  0.00    +0.000 OA
ATOM     13  O   UNK A   3      36.177  64.792   8.986  0.00  0.00    +0.000 OA
ATOM     14 ZN   UNK A   1      34.414  63.559   8.513  0.00  0.00    +0.000 Zn
ATOM     15  N   UNK A   1      34.862  62.122   9.939  0.00  0.00    +0.000 N 
ATOM     16  C   UNK A   1      34.634  62.268  11.288  0.00  0.00    +0.000 A 
ATOM     17  C   UNK A   1      35.152  61.190  11.901  0.00  0.00    +0.000 A 
ATOM     18  N   UNK A   1      35.685  60.380  10.905  0.00  0.00    +0.000 NA
ATOM     19  C   UNK A   1      35.513  60.988   9.736  0.00  0.00    +0.000 A 
ATOM     20  O   UNK A   2      40.283  63.537  11.199  0.00  0.00    +0.000 OA
ATOM     21  H   UNK A   2      38.856  61.332  12.901  0.00  0.00    +0.000 HD
ATOM     22  C   UNK A   1      35.145  60.818  13.358  0.00  0.00    +0.000 C 
ENDROOT
BRANCH   9  23
ATOM     23  C   UNK A   3      39.962  66.371  10.038  0.00  0.00    +0.000 C 
ATOM     24  O   UNK A   3      40.203  67.282  10.873  0.00  0.00    +0.000 OA
ATOM     25  N   GLY A   4      40.826  66.082   9.035  0.00  0.00    +0.000 N 
ATOM     26  CA  GLY A   4      42.017  66.912   8.774  0.00  0.00    +0.000 C 
ATOM     27  CB  GLY A   4      42.870  66.019   7.824  0.00  0.00    +0.000 C 
ATOM     28  CG  GLY A   4      42.277  64.694   7.888  0.00  0.00    +0.000 C 
ATOM     29  CD  GLY A   4      40.791  64.909   8.167  0.00  0.00    +0.000 C 
BRANCH  26  30
ATOM     30  C   GLY A   4      41.570  68.187   8.039  0.00  0.00    +0.000 C 
ATOM     31  N   GLY A   5      40.825  69.041   8.738  0.00  0.00    +0.000 N 
ATOM     32  H   GLY A   5      40.649  68.862   9.747  0.00  0.00    +0.000 HD
ATOM     33  O   GLY A   4      41.929  68.413   6.861  0.00  0.00    +0.000 OA
BRANCH  31  34
ATOM     34  CA  GLY A   5      40.249  70.233   8.102  0.00  0.00    +0.000 C 
BRANCH  34  35
ATOM     35  C   GLY A   5      38.754  70.062   7.827  0.00  0.00    +0.000 C 
ATOM     36  N   TRP A   6      37.959  71.010   8.331  0.00  0.00    +0.000 N 
ATOM     37  H   TRP A   6      38.362  71.746   8.945  0.00  0.00    +0.000 HD
ATOM     38  O   GLY A   5      38.331  69.080   7.196  0.00  0.00    +0.000 OA
BRANCH  36  39
ATOM     39  CA  TRP A   6      36.524  71.024   8.028  0.00  0.00    +0.000 C 
BRANCH  39  40
ATOM     40  C   TRP A   6      35.977  72.379   8.516  0.00  0.00    +0.000 C 
ATOM     41  N   ILE A   7      35.647  72.467   9.792  0.00  0.00    +0.000 N 
ATOM     42  H   ILE A   7      35.669  71.604  10.372  0.00  0.00    +0.000 HD
ATOM     43  O   TRP A   6      35.920  73.299   7.742  0.00  0.00    +0.000 OA
BRANCH  41  44
ATOM     44  CA  ILE A   7      35.255  73.716  10.421  0.00  0.00    +0.000 C 
BRANCH  44  45
ATOM     45  C   ILE A   7      36.474  74.508  10.895  0.00  0.00    +0.000 C 
ATOM     46  O   ILE A   7      36.409  75.711  10.997  0.00  0.00    +0.000 OA
ENDBRANCH  44  45
BRANCH  44  47
ATOM     47  CB  ILE A   7      34.361  73.459  11.656  0.00  0.00    +0.000 C 
ATOM     48  CG2 ILE A   7      34.126  74.737  12.410  0.00  0.00    +0.000 C 
BRANCH  47  49
ATOM     49  CG1 ILE A   7      33.042  72.838  11.249  0.00  0.00    +0.000 C 
ATOM     50  CD1 ILE A   7      32.542  73.313   9.963  0.00  0.00    +0.000 C 
ENDBRANCH  47  49
ENDBRANCH  44  47
ENDBRANCH  41  44
ENDBRANCH  39  40
BRANCH  39  51
ATOM     51  CB  TRP A   6      35.749  69.837   8.670  0.00  0.00    +0.000 C 
BRANCH  51  52
ATOM     52  CG  TRP A   6      34.290  69.928   8.368  0.00  0.00    +0.000 A 
ATOM     53  CD2 TRP A   6      33.216  69.621   9.245  0.00  0.00    +0.000 A 
ATOM     54  CE3 TRP A   6      33.145  69.193  10.582  0.00  0.00    +0.000 A 
ATOM     55  CZ3 TRP A   6      31.869  68.983  11.158  0.00  0.00    +0.000 A 
ATOM     56  CH2 TRP A   6      30.682  69.172  10.395  0.00  0.00    +0.000 A 
ATOM     57  CZ2 TRP A   6      30.726  69.588   9.098  0.00  0.00    +0.000 A 
ATOM     58  CE2 TRP A   6      32.011  69.818   8.521  0.00  0.00    +0.000 A 
ATOM     59  NE1 TRP A   6      32.334  70.250   7.250  0.00  0.00    +0.000 N 
ATOM     60  HE1 TRP A   6      31.661  70.509   6.500  0.00  0.00    +0.000 HD
ATOM     61  CD1 TRP A   6      33.721  70.276   7.153  0.00  0.00    +0.000 A 
ENDBRANCH  51  52
ENDBRANCH  39  51
ENDBRANCH  36  39
ENDBRANCH  34  35
ENDBRANCH  31  34
ENDBRANCH  26  30
ENDBRANCH   9  23
BRANCH  14  62
ATOM     62  N   UNK A   1      35.301  62.932   6.694  0.00  0.00    +0.000 N 
ATOM     63  C   UNK A   1      36.299  62.103   6.462  0.00  0.00    +0.000 A 
ATOM     64  N   UNK A   1      36.456  61.997   5.153  0.00  0.00    +0.000 NA
ATOM     65  C   UNK A   1      35.518  62.778   4.518  0.00  0.00    +0.000 A 
ATOM     66  C   UNK A   1      34.789  63.368   5.498  0.00  0.00    +0.000 A 
BRANCH  65  67
ATOM     67  C   UNK A   1      35.411  62.875   3.020  0.00  0.00    +0.000 C 
BRANCH  67  68
ATOM     68  C   UNK A   1      36.239  64.007   2.435  0.00  0.00    +0.000 C 
BRANCH  68  69
ATOM     69  N   UNK A   1      37.643  63.853   2.807  0.00  0.00    +0.000 N 
ATOM     70  H   UNK A   1      37.894  63.244   3.612  0.00  0.00    +0.000 HD
ATOM     71  C   UNK A   1      38.624  64.488   2.124  0.00  0.00    +0.000 C 
ATOM     72  O   UNK A   1      38.427  65.299   1.263  0.00  0.00    +0.000 OA
BRANCH  71  73
ATOM     73  C   UNK A   1      40.067  64.254   2.616  0.00  0.00    +0.000 C 
BRANCH  73  74
ATOM     74  N   UNK A   1      41.029  64.332   1.503  0.00  0.00    +0.000 NA
ATOM     75  H   UNK A   1      41.880  64.923   1.588  0.00  0.00    +0.000 HD
ENDBRANCH  73  74
BRANCH  73  76
ATOM     76  C   UNK A   1      40.495  65.236   3.703  0.00  0.00    +0.000 C 
BRANCH  76  77
ATOM     77  C   UNK A   1      39.456  65.466   4.754  0.00  0.00    +0.000 A 
ATOM     78  N   UNK A   1      38.826  64.449   5.447  0.00  0.00    +0.000 NA
ATOM     79  C   UNK A   1      37.979  64.987   6.324  0.00  0.00    +0.000 A 
ATOM     80  N   UNK A   1      38.058  66.311   6.225  0.00  0.00    +0.000 NA
ATOM     81  C   UNK A   1      38.989  66.632   5.262  0.00  0.00    +0.000 A 
ENDBRANCH  76  77
ENDBRANCH  73  76
ENDBRANCH  71  73
ENDBRANCH  68  69
BRANCH  68  82
ATOM     82  C   UNK A   1      35.655  65.390   2.761  0.00  0.00    +0.000 C 
ATOM     83  N   UNK A   3      36.418  66.317   3.326  0.00  0.00    +0.000 N 
ATOM     84  H   UNK A   3      37.300  66.045   3.806  0.00  0.00    +0.000 HD
ATOM     85  O   UNK A   1      34.459  65.595   2.508  0.00  0.00    +0.000 OA
BRANCH  83  86
ATOM     86  C   UNK A   3      36.009  67.747   3.271  0.00  0.00    +0.000 C 
BRANCH  86  87
ATOM     87  C   UNK A   3      37.016  68.616   2.526  0.00  0.00    +0.000 C 
ATOM     88  O   UNK A   3      36.938  69.844   2.580  0.00  0.00    +0.000 OA
ATOM     89  N   GLY A   4      37.911  67.979   1.775  0.00  0.00    +0.000 N 
ATOM     90  H   GLY A   4      37.895  66.940   1.744  0.00  0.00    +0.000 HD
BRANCH  89  91
ATOM     91  CA  GLY A   4      38.894  68.679   1.009  0.00  0.00    +0.000 C 
BRANCH  91  92
ATOM     92  C   GLY A   4      38.387  68.847  -0.393  0.00  0.00    +0.000 C 
ATOM     93  O   GLY A   4      37.703  69.811  -0.713  0.00  0.00    +0.000 OA
ENDBRANCH  91  92
ENDBRANCH  89  91
ENDBRANCH  86  87
BRANCH  86  94
ATOM     94  C   UNK A   3      35.884  68.327   4.660  0.00  0.00    +0.000 C 
BRANCH  94  95
ATOM     95  C   UNK A   3      34.871  67.562   5.519  0.00  0.00    +0.000 C 
ATOM     96  O   UNK A   3      35.249  67.041   6.561  0.00  0.00    +0.000 OA
ATOM     97  O   UNK A   3      33.701  67.459   5.093  0.00  0.00    +0.000 OA
ENDBRANCH  94  95
ENDBRANCH  86  94
ENDBRANCH  83  86
ENDBRANCH  68  82
ENDBRANCH  67  68
ENDBRANCH  65  67
ENDBRANCH  14  62
BRANCH   1  98
ATOM     98  N   UNK A   1      36.437  60.299  15.386  0.00  0.00    +0.000 NA
ATOM     99  H   UNK A   1      35.556  60.440  15.920  0.00  0.00    +0.000 HD
ENDBRANCH   1  98
BRANCH   5 100
ATOM    100  C   UNK A   2      40.602  63.264  13.930  0.00  0.00    +0.000 C 
BRANCH 100 101
ATOM    101  C   UNK A   2      40.588  63.138  15.451  0.00  0.00    +0.000 C 
ATOM    102  O   UNK A   2      41.168  63.971  16.175  0.00  0.00    +0.000 OA
ATOM    103  N   UNK A   2      39.909  62.097  15.939  0.00  0.00    +0.000 N 
ATOM    104  H   UNK A   2      39.846  61.953  16.967  0.00  0.00    +0.000 HD
ATOM    105  H   UNK A   2      39.443  61.430  15.291  0.00  0.00    +0.000 HD
ENDBRANCH 100 101
ENDBRANCH   5 100
BRANCH  14 106
ATOM    106  O   UNK A   1      32.405  62.786   8.066  0.00  0.00    +0.000 OA
BRANCH 106 107
ATOM    107  C   UNK A   1      31.909  61.674   7.843  0.00  0.00    +0.000 C 
ATOM    108  O   UNK A   1      30.684  61.498   7.818  0.00  0.00    +0.000 OA
BRANCH 107 109
ATOM    109  C   UNK A   1      32.852  60.473   7.605  0.00  0.00    +0.000 C 
BRANCH 109 110
ATOM    110  C   UNK A   1      32.234  59.392   6.705  0.00  0.00    +0.000 C 
BRANCH 110 111
ATOM    111  C   UNK A   1      32.163  59.857   5.248  0.00  0.00    +0.000 C 
ATOM    112  O   UNK A   1      31.449  60.800   4.975  0.00  0.00    +0.000 OA
ATOM    113  N   UNK A   3      32.881  59.236   4.313  0.00  0.00    +0.000 N 
ATOM    114  C   UNK A   3      33.851  58.141   4.346  0.00  0.00    +0.000 C 
ATOM    115  C   UNK A   3      34.668  58.376   3.086  0.00  0.00    +0.000 C 
ATOM    116  C   UNK A   3      33.625  58.771   2.108  0.00  0.00    +0.000 C 
ATOM    117  C   UNK A   3      32.742  59.736   2.923  0.00  0.00    +0.000 C 
BRANCH 117 118
ATOM    118  C   UNK A   3      31.293  59.596   2.442  0.00  0.00    +0.000 C 
ATOM    119  O   UNK A   3      30.581  58.700   2.863  0.00  0.00    +0.000 OA
ATOM    120  N   GLY A   4      30.863  60.495   1.566  0.00  0.00    +0.000 N 
ATOM    121  H   GLY A   4      31.556  61.084   1.061  0.00  0.00    +0.000 HD
BRANCH 120 122
ATOM    122  CA  GLY A   4      29.432  60.677   1.293  0.00  0.00    +0.000 C 
BRANCH 122 123
ATOM    123  C   GLY A   4      29.013  59.797   0.111  0.00  0.00    +0.000 C 
ATOM    124  O   GLY A   4      28.800  60.272  -0.988  0.00  0.00    +0.000 OA
ENDBRANCH 122 123
BRANCH 122 125
ATOM    125  CB  GLY A   4      29.153  62.148   1.008  0.00  0.00    +0.000 C 
BRANCH 125 126
ATOM    126  CG  GLY A   4      29.973  63.125   1.867  0.00  0.00    +0.000 A 
ATOM    127  CD2 GLY A   4      30.195  62.913   3.235  0.00  0.00    +0.000 A 
ATOM    128  CE2 GLY A   4      30.926  63.831   4.019  0.00  0.00    +0.000 A 
ATOM    129  CZ  GLY A   4      31.506  64.924   3.386  0.00  0.00    +0.000 A 
ATOM    130  CE1 GLY A   4      31.327  65.134   1.993  0.00  0.00    +0.000 A 
ATOM    131  CD1 GLY A   4      30.596  64.212   1.239  0.00  0.00    +0.000 A 
ENDBRANCH 125 126
ENDBRANCH 122 125
ENDBRANCH 120 122
ENDBRANCH 117 118
ENDBRANCH 110 111
BRANCH 110 132
ATOM    132  N   UNK A   1      32.719  58.054   7.017  0.00  0.00    +0.000 N 
ATOM    133  C   UNK A   1      31.985  57.222   7.748  0.00  0.00    +0.000 C 
ATOM    134  O   UNK A   1      30.805  57.453   8.035  0.00  0.00    +0.000 OA
ATOM    135  H   UNK A   1      33.648  57.747   6.664  0.00  0.00    +0.000 HD
BRANCH 133 136
ATOM    136  C   UNK A   1      32.666  55.938   8.193  0.00  0.00    +0.000 C 
BRANCH 136 137
ATOM    137  N   UNK A   1      33.980  55.683   7.550  0.00  0.00    +0.000 NA
ATOM    138  H   UNK A   1      34.849  56.112   7.927  0.00  0.00    +0.000 HD
ENDBRANCH 136 137
BRANCH 136 139
ATOM    139  C   UNK A   1      32.747  55.892   9.736  0.00  0.00    +0.000 C 
ATOM    140  C   UNK A   1      32.982  54.450  10.221  0.00  0.00    +0.000 C 
BRANCH 139 141
ATOM    141  C   UNK A   1      33.816  56.866  10.276  0.00  0.00    +0.000 C 
ATOM    142  C   UNK A   1      33.705  57.041  11.775  0.00  0.00    +0.000 C 
ENDBRANCH 139 141
ENDBRANCH 136 139
ENDBRANCH 133 136
ENDBRANCH 110 132
ENDBRANCH 109 110
ENDBRANCH 107 109
ENDBRANCH 106 107
ENDBRANCH  14 106
TORSDOF 45
REMARK  Name = ../refined-set-2016/3d4y/3d4y_pocket.pdb
REMARK  141 active torsions:
REMARK  status: ('A' for Active; 'I' for Inactive)
REMARK    1  A    between atoms: _1  and  _3
REMARK    2  A    between atoms: _14  and  _17
REMARK    3  A    between atoms: _17  and  _18
REMARK    4  A    between atoms: _25  and  _26
REMARK    5  A    between atoms: _33  and  _34
REMARK    6  A    between atoms: _39  and  _41
REMARK    7  A    between atoms: _41  and  _42
REMARK    8  A    between atoms: _44  and  _46
REMARK    9  A    between atoms: _46  and  _47
REMARK   10  A    between atoms: _46  and  _49
REMARK   11  A    between atoms: _49  and  _50
REMARK   12  A    between atoms: _60  and  _62
REMARK   13  A    between atoms: _62  and  _63
REMARK   14  A    between atoms: _62  and  _65
REMARK   15  A    between atoms: _65  and  _66
REMARK   16  A    between atoms: _69  and  _71
REMARK   17  A    between atoms: _71  and  _72
REMARK   18  A    between atoms: _71  and  _74
REMARK   19  A    between atoms: _74  and  _75
REMARK   20  A    between atoms: _80  and  _81
REMARK   21  A    between atoms: _83  and  _85
REMARK   22  A    between atoms: _85  and  _86
REMARK   23  A    between atoms: _85  and  _88
REMARK   24  A    between atoms: _88  and  _89
REMARK   25  A    between atoms: _89  and  _90
REMARK   26  A    between atoms: _93  and  _95
REMARK   27  A    between atoms: _95  and  _96
REMARK   28  A    between atoms: _95  and  _98
REMARK   29  A    between atoms: _98  and  _99
REMARK   30  A    between atoms: _99  and  _100
REMARK   31  A    between atoms: _102  and  _104
REMARK   32  A    between atoms: _104  and  _105
REMARK   33  A    between atoms: _104  and  _107
REMARK   34  A    between atoms: _107  and  _108
REMARK   35  A    between atoms: _111  and  _113
REMARK   36  A    between atoms: _113  and  _114
REMARK   37  A    between atoms: _113  and  _116
REMARK   38  A    between atoms: _116  and  _117
REMARK   39  A    between atoms: _117  and  _119
REMARK   40  A    between atoms: _119  and  ZN_385
REMARK   41  A    between atoms: _121  and  _122
REMARK   42  A    between atoms: _127  and  _129
REMARK   43  A    between atoms: _129  and  _130
REMARK   44  A    between atoms: _129  and  _132
REMARK   45  A    between atoms: _132  and  _133
REMARK   46  A    between atoms: _139  and  _141
REMARK   47  A    between atoms: _141  and  _142
REMARK   48  A    between atoms: _141  and  _144
REMARK   49  A    between atoms: _144  and  _145
REMARK   50  A    between atoms: _145  and  _146
REMARK   51  A    between atoms: _146  and  _147
REMARK   52  A    between atoms: _156  and  _158
REMARK   53  A    between atoms: _158  and  _159
REMARK   54  A    between atoms: _158  and  _161
REMARK   55  A    between atoms: _161  and  _162
REMARK   56  A    between atoms: _167  and  _168
REMARK   57  A    between atoms: _170  and  _172
REMARK   58  A    between atoms: _172  and  _173
REMARK   59  A    between atoms: _172  and  _175
REMARK   60  A    between atoms: _175  and  _176
REMARK   61  A    between atoms: _178  and  _180
REMARK   62  A    between atoms: _180  and  _181
REMARK   63  A    between atoms: _180  and  _183
REMARK   64  A    between atoms: _183  and  _184
REMARK   65  A    between atoms: _189  and  _190
REMARK   66  A    between atoms: _192  and  _194
REMARK   67  A    between atoms: _194  and  _195
REMARK   68  A    between atoms: _194  and  _197
REMARK   69  A    between atoms: _197  and  _198
REMARK   70  A    between atoms: _201  and  _203
REMARK   71  A    between atoms: _203  and  _204
REMARK   72  A    between atoms: _203  and  _206
REMARK   73  A    between atoms: _206  and  _207
REMARK   74  A    between atoms: _210  and  _212
REMARK   75  A    between atoms: _212  and  _213
REMARK   76  A    between atoms: _212  and  _215
REMARK   77  A    between atoms: _215  and  _216
REMARK   78  A    between atoms: _222  and  _224
REMARK   79  A    between atoms: _224  and  _225
REMARK   80  A    between atoms: _224  and  _227
REMARK   81  A    between atoms: _227  and  _228
REMARK   82  A    between atoms: _233  and  _234
REMARK   83  A    between atoms: _236  and  _238
REMARK   84  A    between atoms: _238  and  _239
REMARK   85  A    between atoms: _238  and  _241
REMARK   86  A    between atoms: _241  and  _242
REMARK   87  A    between atoms: _245  and  _247
REMARK   88  A    between atoms: _247  and  _248
REMARK   89  A    between atoms: _247  and  _250
REMARK   90  A    between atoms: _250  and  _251
REMARK   91  A    between atoms: _261  and  _263
REMARK   92  A    between atoms: _263  and  _264
REMARK   93  A    between atoms: _263  and  _266
REMARK   94  A    between atoms: _266  and  _267
REMARK   95  A    between atoms: _272  and  _274
REMARK   96  A    between atoms: _274  and  _275
REMARK   97  A    between atoms: _274  and  _277
REMARK   98  A    between atoms: _277  and  _278
REMARK   99  A    between atoms: _282  and  ZN_385
REMARK  100  A    between atoms: _283  and  _285
REMARK  101  A    between atoms: _285  and  _286
REMARK  102  A    between atoms: _285  and  _288
REMARK  103  A    between atoms: _288  and  _289
REMARK  104  A    between atoms: _292  and  _294
REMARK  105  A    between atoms: _294  and  _295
REMARK  106  A    between atoms: _297  and  _299
REMARK  107  A    between atoms: _299  and  _300
REMARK  108  A    between atoms: _299  and  _302
REMARK  109  A    between atoms: _302  and  _303
REMARK  110  A    between atoms: _306  and  _308
REMARK  111  A    between atoms: _308  and  _309
REMARK  112  A    between atoms: _308  and  _311
REMARK  113  A    between atoms: _311  and  _312
REMARK  114  A    between atoms: _315  and  _317
REMARK  115  A    between atoms: _317  and  _318
REMARK  116  A    between atoms: _321  and  _323
REMARK  117  A    between atoms: _323  and  _324
REMARK  118  A    between atoms: _323  and  _326
REMARK  119  A    between atoms: _326  and  _327
REMARK  120  A    between atoms: _332  and  _333
REMARK  121  A    between atoms: _335  and  _337
REMARK  122  A    between atoms: _337  and  _338
REMARK  123  A    between atoms: _337  and  _340
REMARK  124  A    between atoms: _340  and  _341
REMARK  125  A    between atoms: _344  and  _346
REMARK  126  A    between atoms: _346  and  _347
REMARK  127  A    between atoms: _346  and  _349
REMARK  128  A    between atoms: _349  and  _350
REMARK  129  A    between atoms: _350  and  _351
REMARK  130  A    between atoms: _354  and  _356
REMARK  131  A    between atoms: _356  and  _357
REMARK  132  A    between atoms: _356  and  _359
REMARK  133  A    between atoms: _359  and  _360
REMARK  134  A    between atoms: _360  and  _361
REMARK  135  A    between atoms: _361  and  _362
REMARK  136  A    between atoms: _371  and  _373
REMARK  137  A    between atoms: _373  and  _374
REMARK  138  A    between atoms: _376  and  _378
REMARK  139  A    between atoms: _378  and  _379
REMARK  140  A    between atoms: _378  and  _381
REMARK  141  A    between atoms: _381  and  _382
REMARK                            x       y       z     vdW  Elec       q    Type
REMARK                         _______ _______ _______ _____ _____    ______ ____
ROOT
ATOM      1  CG  TYR A   1      40.177  70.319  13.511  0.00  0.00    -0.020 A 
ATOM      2  CD2 TYR A   1      39.165  70.531  14.419  0.00  0.00    -0.001 A 
ATOM      3  CE2 TYR A   1      37.868  70.654  14.006  0.00  0.00    +0.036 A 
ATOM      4  CZ  TYR A   1      37.569  70.540  12.675  0.00  0.00    +0.134 A 
ATOM      5  CE1 TYR A   1      38.556  70.317  11.767  0.00  0.00    +0.036 A 
ATOM      6  CD1 TYR A   1      39.838  70.201  12.183  0.00  0.00    -0.001 A 
ENDROOT
BRANCH   4   7
ATOM      7  OH  TYR A   1      36.286  70.647  12.245  0.00  0.00    -0.506 OA
ATOM      8  HH  TYR A   1      35.692  70.807  13.020  0.00  0.00    +0.292 HD
ENDBRANCH   4   7
BRANCH   1   9
ATOM      9  CB  TYR A   1      41.611  70.134  13.940  0.00  0.00    +0.051 C 
BRANCH   9  10
ATOM     10  CA  TYR A   1      42.179  71.096  14.974  0.00  0.00    +0.137 C 
BRANCH  10  11
ATOM     11  N   TYR A   1      42.682  72.304  14.339  0.00  0.00    -0.239 NA
ATOM     12  H   TYR A   1      42.628  72.405  13.305  0.00  0.00    +0.142 HD
ENDBRANCH  10  11
BRANCH  10  13
ATOM     13  C   TYR A   1      43.272  70.364  15.738  0.00  0.00    +0.224 C 
ATOM     14  O   TYR A   1      43.003  69.820  16.785  0.00  0.00    -0.287 OA
ENDBRANCH  10  13
ENDBRANCH   9  10
ENDBRANCH   1   9
TORSDOF 5
REMARK  Name = ../refined-set-2016/3d4y/3d4y_pocket.pdb
REMARK  141 active torsions:
REMARK  status: ('A' for Active; 'I' for Inactive)
REMARK    1  A    between atoms: _1  and  _3
REMARK    2  A    between atoms: _14  and  _17
REMARK    3  A    between atoms: _17  and  _18
REMARK    4  A    between atoms: _25  and  _26
REMARK    5  A    between atoms: _33  and  _34
REMARK    6  A    between atoms: _39  and  _41
REMARK    7  A    between atoms: _41  and  _42
REMARK    8  A    between atoms: _44  and  _46
REMARK    9  A    between atoms: _46  and  _47
REMARK   10  A    between atoms: _46  and  _49
REMARK   11  A    between atoms: _49  and  _50
REMARK   12  A    between atoms: _60  and  _62
REMARK   13  A    between atoms: _62  and  _63
REMARK   14  A    between atoms: _62  and  _65
REMARK   15  A    between atoms: _65  and  _66
REMARK   16  A    between atoms: _69  and  _71
REMARK   17  A    between atoms: _71  and  _72
REMARK   18  A    between atoms: _71  and  _74
REMARK   19  A    between atoms: _74  and  _75
REMARK   20  A    between atoms: _80  and  _81
REMARK   21  A    between atoms: _83  and  _85
REMARK   22  A    between atoms: _85  and  _86
REMARK   23  A    between atoms: _85  and  _88
REMARK   24  A    between atoms: _88  and  _89
REMARK   25  A    between atoms: _89  and  _90
REMARK   26  A    between atoms: _93  and  _95
REMARK   27  A    between atoms: _95  and  _96
REMARK   28  A    between atoms: _95  and  _98
REMARK   29  A    between atoms: _98  and  _99
REMARK   30  A    between atoms: _99  and  _100
REMARK   31  A    between atoms: _102  and  _104
REMARK   32  A    between atoms: _104  and  _105
REMARK   33  A    between atoms: _104  and  _107
REMARK   34  A    between atoms: _107  and  _108
REMARK   35  A    between atoms: _111  and  _113
REMARK   36  A    between atoms: _113  and  _114
REMARK   37  A    between atoms: _113  and  _116
REMARK   38  A    between atoms: _116  and  _117
REMARK   39  A    between atoms: _117  and  _119
REMARK   40  A    between atoms: _119  and  ZN_385
REMARK   41  A    between atoms: _121  and  _122
REMARK   42  A    between atoms: _127  and  _129
REMARK   43  A    between atoms: _129  and  _130
REMARK   44  A    between atoms: _129  and  _132
REMARK   45  A    between atoms: _132  and  _133
REMARK   46  A    between atoms: _139  and  _141
REMARK   47  A    between atoms: _141  and  _142
REMARK   48  A    between atoms: _141  and  _144
REMARK   49  A    between atoms: _144  and  _145
REMARK   50  A    between atoms: _145  and  _146
REMARK   51  A    between atoms: _146  and  _147
REMARK   52  A    between atoms: _156  and  _158
REMARK   53  A    between atoms: _158  and  _159
REMARK   54  A    between atoms: _158  and  _161
REMARK   55  A    between atoms: _161  and  _162
REMARK   56  A    between atoms: _167  and  _168
REMARK   57  A    between atoms: _170  and  _172
REMARK   58  A    between atoms: _172  and  _173
REMARK   59  A    between atoms: _172  and  _175
REMARK   60  A    between atoms: _175  and  _176
REMARK   61  A    between atoms: _178  and  _180
REMARK   62  A    between atoms: _180  and  _181
REMARK   63  A    between atoms: _180  and  _183
REMARK   64  A    between atoms: _183  and  _184
REMARK   65  A    between atoms: _189  and  _190
REMARK   66  A    between atoms: _192  and  _194
REMARK   67  A    between atoms: _194  and  _195
REMARK   68  A    between atoms: _194  and  _197
REMARK   69  A    between atoms: _197  and  _198
REMARK   70  A    between atoms: _201  and  _203
REMARK   71  A    between atoms: _203  and  _204
REMARK   72  A    between atoms: _203  and  _206
REMARK   73  A    between atoms: _206  and  _207
REMARK   74  A    between atoms: _210  and  _212
REMARK   75  A    between atoms: _212  and  _213
REMARK   76  A    between atoms: _212  and  _215
REMARK   77  A    between atoms: _215  and  _216
REMARK   78  A    between atoms: _222  and  _224
REMARK   79  A    between atoms: _224  and  _225
REMARK   80  A    between atoms: _224  and  _227
REMARK   81  A    between atoms: _227  and  _228
REMARK   82  A    between atoms: _233  and  _234
REMARK   83  A    between atoms: _236  and  _238
REMARK   84  A    between atoms: _238  and  _239
REMARK   85  A    between atoms: _238  and  _241
REMARK   86  A    between atoms: _241  and  _242
REMARK   87  A    between atoms: _245  and  _247
REMARK   88  A    between atoms: _247  and  _248
REMARK   89  A    between atoms: _247  and  _250
REMARK   90  A    between atoms: _250  and  _251
REMARK   91  A    between atoms: _261  and  _263
REMARK   92  A    between atoms: _263  and  _264
REMARK   93  A    between atoms: _263  and  _266
REMARK   94  A    between atoms: _266  and  _267
REMARK   95  A    between atoms: _272  and  _274
REMARK   96  A    between atoms: _274  and  _275
REMARK   97  A    between atoms: _274  and  _277
REMARK   98  A    between atoms: _277  and  _278
REMARK   99  A    between atoms: _282  and  ZN_385
REMARK  100  A    between atoms: _283  and  _285
REMARK  101  A    between atoms: _285  and  _286
REMARK  102  A    between atoms: _285  and  _288
REMARK  103  A    between atoms: _288  and  _289
REMARK  104  A    between atoms: _292  and  _294
REMARK  105  A    between atoms: _294  and  _295
REMARK  106  A    between atoms: _297  and  _299
REMARK  107  A    between atoms: _299  and  _300
REMARK  108  A    between atoms: _299  and  _302
REMARK  109  A    between atoms: _302  and  _303
REMARK  110  A    between atoms: _306  and  _308
REMARK  111  A    between atoms: _308  and  _309
REMARK  112  A    between atoms: _308  and  _311
REMARK  113  A    between atoms: _311  and  _312
REMARK  114  A    between atoms: _315  and  _317
REMARK  115  A    between atoms: _317  and  _318
REMARK  116  A    between atoms: _321  and  _323
REMARK  117  A    between atoms: _323  and  _324
REMARK  118  A    between atoms: _323  and  _326
REMARK  119  A    between atoms: _326  and  _327
REMARK  120  A    between atoms: _332  and  _333
REMARK  121  A    between atoms: _335  and  _337
REMARK  122  A    between atoms: _337  and  _338
REMARK  123  A    between atoms: _337  and  _340
REMARK  124  A    between atoms: _340  and  _341
REMARK  125  A    between atoms: _344  and  _346
REMARK  126  A    between atoms: _346  and  _347
REMARK  127  A    between atoms: _346  and  _349
REMARK  128  A    between atoms: _349  and  _350
REMARK  129  A    between atoms: _350  and  _351
REMARK  130  A    between atoms: _354  and  _356
REMARK  131  A    between atoms: _356  and  _357
REMARK  132  A    between atoms: _356  and  _359
REMARK  133  A    between atoms: _359  and  _360
REMARK  134  A    between atoms: _360  and  _361
REMARK  135  A    between atoms: _361  and  _362
REMARK  136  A    between atoms: _371  and  _373
REMARK  137  A    between atoms: _373  and  _374
REMARK  138  A    between atoms: _376  and  _378
REMARK  139  A    between atoms: _378  and  _379
REMARK  140  A    between atoms: _378  and  _381
REMARK  141  A    between atoms: _381  and  _382
REMARK                            x       y       z     vdW  Elec       q    Type
REMARK                         _______ _______ _______ _____ _____    ______ ____
ROOT
ATOM      1  CA  GLU A   1      44.028  59.520   9.956  0.00  0.00    +0.134 C 
ENDROOT
BRANCH   1   2
ATOM      2  N   GLU A   1      43.411  58.418  10.733  0.00  0.00    -0.239 NA
ATOM      3  H   GLU A   1      43.030  58.615  11.681  0.00  0.00    +0.142 HD
ENDBRANCH   1   2
BRANCH   1   4
ATOM      4  C   GLU A   1      45.505  59.636  10.259  0.00  0.00    +0.224 C 
ATOM      5  O   GLU A   1      45.948  60.256  11.271  0.00  0.00    -0.287 OA
ENDBRANCH   1   4
BRANCH   1   6
ATOM      6  CB  GLU A   1      43.295  60.856  10.215  0.00  0.00    +0.037 C 
BRANCH   6   7
ATOM      7  CG  GLU A   1      41.754  60.821   9.924  0.00  0.00    +0.116 C 
BRANCH   7   8
ATOM      8  CD  GLU A   1      40.911  60.339  11.124  0.00  0.00    +0.365 C 
ATOM      9  OE2 GLU A   1      41.498  59.914  12.132  0.00  0.00    -0.246 OA
ATOM     10  OE1 GLU A   1      39.623  60.347  11.045  0.00  0.00    -0.246 OA
ENDBRANCH   7   8
ENDBRANCH   6   7
ENDBRANCH   1   6
TORSDOF 5
REMARK  Name = ../refined-set-2016/3d4y/3d4y_pocket.pdb
REMARK  141 active torsions:
REMARK  status: ('A' for Active; 'I' for Inactive)
REMARK    1  A    between atoms: _1  and  _3
REMARK    2  A    between atoms: _14  and  _17
REMARK    3  A    between atoms: _17  and  _18
REMARK    4  A    between atoms: _25  and  _26
REMARK    5  A    between atoms: _33  and  _34
REMARK    6  A    between atoms: _39  and  _41
REMARK    7  A    between atoms: _41  and  _42
REMARK    8  A    between atoms: _44  and  _46
REMARK    9  A    between atoms: _46  and  _47
REMARK   10  A    between atoms: _46  and  _49
REMARK   11  A    between atoms: _49  and  _50
REMARK   12  A    between atoms: _60  and  _62
REMARK   13  A    between atoms: _62  and  _63
REMARK   14  A    between atoms: _62  and  _65
REMARK   15  A    between atoms: _65  and  _66
REMARK   16  A    between atoms: _69  and  _71
REMARK   17  A    between atoms: _71  and  _72
REMARK   18  A    between atoms: _71  and  _74
REMARK   19  A    between atoms: _74  and  _75
REMARK   20  A    between atoms: _80  and  _81
REMARK   21  A    between atoms: _83  and  _85
REMARK   22  A    between atoms: _85  and  _86
REMARK   23  A    between atoms: _85  and  _88
REMARK   24  A    between atoms: _88  and  _89
REMARK   25  A    between atoms: _89  and  _90
REMARK   26  A    between atoms: _93  and  _95
REMARK   27  A    between atoms: _95  and  _96
REMARK   28  A    between atoms: _95  and  _98
REMARK   29  A    between atoms: _98  and  _99
REMARK   30  A    between atoms: _99  and  _100
REMARK   31  A    between atoms: _102  and  _104
REMARK   32  A    between atoms: _104  and  _105
REMARK   33  A    between atoms: _104  and  _107
REMARK   34  A    between atoms: _107  and  _108
REMARK   35  A    between atoms: _111  and  _113
REMARK   36  A    between atoms: _113  and  _114
REMARK   37  A    between atoms: _113  and  _116
REMARK   38  A    between atoms: _116  and  _117
REMARK   39  A    between atoms: _117  and  _119
REMARK   40  A    between atoms: _119  and  ZN_385
REMARK   41  A    between atoms: _121  and  _122
REMARK   42  A    between atoms: _127  and  _129
REMARK   43  A    between atoms: _129  and  _130
REMARK   44  A    between atoms: _129  and  _132
REMARK   45  A    between atoms: _132  and  _133
REMARK   46  A    between atoms: _139  and  _141
REMARK   47  A    between atoms: _141  and  _142
REMARK   48  A    between atoms: _141  and  _144
REMARK   49  A    between atoms: _144  and  _145
REMARK   50  A    between atoms: _145  and  _146
REMARK   51  A    between atoms: _146  and  _147
REMARK   52  A    between atoms: _156  and  _158
REMARK   53  A    between atoms: _158  and  _159
REMARK   54  A    between atoms: _158  and  _161
REMARK   55  A    between atoms: _161  and  _162
REMARK   56  A    between atoms: _167  and  _168
REMARK   57  A    between atoms: _170  and  _172
REMARK   58  A    between atoms: _172  and  _173
REMARK   59  A    between atoms: _172  and  _175
REMARK   60  A    between atoms: _175  and  _176
REMARK   61  A    between atoms: _178  and  _180
REMARK   62  A    between atoms: _180  and  _181
REMARK   63  A    between atoms: _180  and  _183
REMARK   64  A    between atoms: _183  and  _184
REMARK   65  A    between atoms: _189  and  _190
REMARK   66  A    between atoms: _192  and  _194
REMARK   67  A    between atoms: _194  and  _195
REMARK   68  A    between atoms: _194  and  _197
REMARK   69  A    between atoms: _197  and  _198
REMARK   70  A    between atoms: _201  and  _203
REMARK   71  A    between atoms: _203  and  _204
REMARK   72  A    between atoms: _203  and  _206
REMARK   73  A    between atoms: _206  and  _207
REMARK   74  A    between atoms: _210  and  _212
REMARK   75  A    between atoms: _212  and  _213
REMARK   76  A    between atoms: _212  and  _215
REMARK   77  A    between atoms: _215  and  _216
REMARK   78  A    between atoms: _222  and  _224
REMARK   79  A    between atoms: _224  and  _225
REMARK   80  A    between atoms: _224  and  _227
REMARK   81  A    between atoms: _227  and  _228
REMARK   82  A    between atoms: _233  and  _234
REMARK   83  A    between atoms: _236  and  _238
REMARK   84  A    between atoms: _238  and  _239
REMARK   85  A    between atoms: _238  and  _241
REMARK   86  A    between atoms: _241  and  _242
REMARK   87  A    between atoms: _245  and  _247
REMARK   88  A    between atoms: _247  and  _248
REMARK   89  A    between atoms: _247  and  _250
REMARK   90  A    between atoms: _250  and  _251
REMARK   91  A    between atoms: _261  and  _263
REMARK   92  A    between atoms: _263  and  _264
REMARK   93  A    between atoms: _263  and  _266
REMARK   94  A    between atoms: _266  and  _267
REMARK   95  A    between atoms: _272  and  _274
REMARK   96  A    between atoms: _274  and  _275
REMARK   97  A    between atoms: _274  and  _277
REMARK   98  A    between atoms: _277  and  _278
REMARK   99  A    between atoms: _282  and  ZN_385
REMARK  100  A    between atoms: _283  and  _285
REMARK  101  A    between atoms: _285  and  _286
REMARK  102  A    between atoms: _285  and  _288
REMARK  103  A    between atoms: _288  and  _289
REMARK  104  A    between atoms: _292  and  _294
REMARK  105  A    between atoms: _294  and  _295
REMARK  106  A    between atoms: _297  and  _299
REMARK  107  A    between atoms: _299  and  _300
REMARK  108  A    between atoms: _299  and  _302
REMARK  109  A    between atoms: _302  and  _303
REMARK  110  A    between atoms: _306  and  _308
REMARK  111  A    between atoms: _308  and  _309
REMARK  112  A    between atoms: _308  and  _311
REMARK  113  A    between atoms: _311  and  _312
REMARK  114  A    between atoms: _315  and  _317
REMARK  115  A    between atoms: _317  and  _318
REMARK  116  A    between atoms: _321  and  _323
REMARK  117  A    between atoms: _323  and  _324
REMARK  118  A    between atoms: _323  and  _326
REMARK  119  A    between atoms: _326  and  _327
REMARK  120  A    between atoms: _332  and  _333
REMARK  121  A    between atoms: _335  and  _337
REMARK  122  A    between atoms: _337  and  _338
REMARK  123  A    between atoms: _337  and  _340
REMARK  124  A    between atoms: _340  and  _341
REMARK  125  A    between atoms: _344  and  _346
REMARK  126  A    between atoms: _346  and  _347
REMARK  127  A    between atoms: _346  and  _349
REMARK  128  A    between atoms: _349  and  _350
REMARK  129  A    between atoms: _350  and  _351
REMARK  130  A    between atoms: _354  and  _356
REMARK  131  A    between atoms: _356  and  _357
REMARK  132  A    between atoms: _356  and  _359
REMARK  133  A    between atoms: _359  and  _360
REMARK  134  A    between atoms: _360  and  _361
REMARK  135  A    between atoms: _361  and  _362
REMARK  136  A    between atoms: _371  and  _373
REMARK  137  A    between atoms: _373  and  _374
REMARK  138  A    between atoms: _376  and  _378
REMARK  139  A    between atoms: _378  and  _379
REMARK  140  A    between atoms: _378  and  _381
REMARK  141  A    between atoms: _381  and  _382
REMARK                            x       y       z     vdW  Elec       q    Type
REMARK                         _______ _______ _______ _____ _____    ______ ____
ROOT
ATOM      1  CA  MET A   1      39.875  59.079   4.999  0.00  0.00    +0.134 C 
ENDROOT
BRANCH   1   2
ATOM      2  N   MET A   1      41.027  59.921   5.406  0.00  0.00    -0.239 NA
ATOM      3  H   MET A   1      40.843  60.813   5.909  0.00  0.00    +0.142 HD
ENDBRANCH   1   2
BRANCH   1   4
ATOM      4  C   MET A   1      39.275  59.750   3.767  0.00  0.00    +0.224 C 
ATOM      5  O   MET A   1      38.597  60.742   3.875  0.00  0.00    -0.287 OA
ENDBRANCH   1   4
BRANCH   1   6
ATOM      6  CB  MET A   1      38.860  58.927   6.173  0.00  0.00    +0.037 C 
BRANCH   6   7
ATOM      7  CG  MET A   1      37.604  58.119   5.820  0.00  0.00    +0.059 C 
BRANCH   7   8
ATOM      8  SD  MET A   1      36.436  58.225   7.221  0.00  0.00    -0.139 S 
ATOM      9  CE  MET A   1      37.426  57.446   8.499  0.00  0.00    +0.069 C 
ENDBRANCH   7   8
ENDBRANCH   6   7
ENDBRANCH   1   6
TORSDOF 5
REMARK  Name = ../refined-set-2016/3d4y/3d4y_pocket.pdb
REMARK  141 active torsions:
REMARK  status: ('A' for Active; 'I' for Inactive)
REMARK    1  A    between atoms: _1  and  _3
REMARK    2  A    between atoms: _14  and  _17
REMARK    3  A    between atoms: _17  and  _18
REMARK    4  A    between atoms: _25  and  _26
REMARK    5  A    between atoms: _33  and  _34
REMARK    6  A    between atoms: _39  and  _41
REMARK    7  A    between atoms: _41  and  _42
REMARK    8  A    between atoms: _44  and  _46
REMARK    9  A    between atoms: _46  and  _47
REMARK   10  A    between atoms: _46  and  _49
REMARK   11  A    between atoms: _49  and  _50
REMARK   12  A    between atoms: _60  and  _62
REMARK   13  A    between atoms: _62  and  _63
REMARK   14  A    between atoms: _62  and  _65
REMARK   15  A    between atoms: _65  and  _66
REMARK   16  A    between atoms: _69  and  _71
REMARK   17  A    between atoms: _71  and  _72
REMARK   18  A    between atoms: _71  and  _74
REMARK   19  A    between atoms: _74  and  _75
REMARK   20  A    between atoms: _80  and  _81
REMARK   21  A    between atoms: _83  and  _85
REMARK   22  A    between atoms: _85  and  _86
REMARK   23  A    between atoms: _85  and  _88
REMARK   24  A    between atoms: _88  and  _89
REMARK   25  A    between atoms: _89  and  _90
REMARK   26  A    between atoms: _93  and  _95
REMARK   27  A    between atoms: _95  and  _96
REMARK   28  A    between atoms: _95  and  _98
REMARK   29  A    between atoms: _98  and  _99
REMARK   30  A    between atoms: _99  and  _100
REMARK   31  A    between atoms: _102  and  _104
REMARK   32  A    between atoms: _104  and  _105
REMARK   33  A    between atoms: _104  and  _107
REMARK   34  A    between atoms: _107  and  _108
REMARK   35  A    between atoms: _111  and  _113
REMARK   36  A    between atoms: _113  and  _114
REMARK   37  A    between atoms: _113  and  _116
REMARK   38  A    between atoms: _116  and  _117
REMARK   39  A    between atoms: _117  and  _119
REMARK   40  A    between atoms: _119  and  ZN_385
REMARK   41  A    between atoms: _121  and  _122
REMARK   42  A    between atoms: _127  and  _129
REMARK   43  A    between atoms: _129  and  _130
REMARK   44  A    between atoms: _129  and  _132
REMARK   45  A    between atoms: _132  and  _133
REMARK   46  A    between atoms: _139  and  _141
REMARK   47  A    between atoms: _141  and  _142
REMARK   48  A    between atoms: _141  and  _144
REMARK   49  A    between atoms: _144  and  _145
REMARK   50  A    between atoms: _145  and  _146
REMARK   51  A    between atoms: _146  and  _147
REMARK   52  A    between atoms: _156  and  _158
REMARK   53  A    between atoms: _158  and  _159
REMARK   54  A    between atoms: _158  and  _161
REMARK   55  A    between atoms: _161  and  _162
REMARK   56  A    between atoms: _167  and  _168
REMARK   57  A    between atoms: _170  and  _172
REMARK   58  A    between atoms: _172  and  _173
REMARK   59  A    between atoms: _172  and  _175
REMARK   60  A    between atoms: _175  and  _176
REMARK   61  A    between atoms: _178  and  _180
REMARK   62  A    between atoms: _180  and  _181
REMARK   63  A    between atoms: _180  and  _183
REMARK   64  A    between atoms: _183  and  _184
REMARK   65  A    between atoms: _189  and  _190
REMARK   66  A    between atoms: _192  and  _194
REMARK   67  A    between atoms: _194  and  _195
REMARK   68  A    between atoms: _194  and  _197
REMARK   69  A    between atoms: _197  and  _198
REMARK   70  A    between atoms: _201  and  _203
REMARK   71  A    between atoms: _203  and  _204
REMARK   72  A    between atoms: _203  and  _206
REMARK   73  A    between atoms: _206  and  _207
REMARK   74  A    between atoms: _210  and  _212
REMARK   75  A    between atoms: _212  and  _213
REMARK   76  A    between atoms: _212  and  _215
REMARK   77  A    between atoms: _215  and  _216
REMARK   78  A    between atoms: _222  and  _224
REMARK   79  A    between atoms: _224  and  _225
REMARK   80  A    between atoms: _224  and  _227
REMARK   81  A    between atoms: _227  and  _228
REMARK   82  A    between atoms: _233  and  _234
REMARK   83  A    between atoms: _236  and  _238
REMARK   84  A    between atoms: _238  and  _239
REMARK   85  A    between atoms: _238  and  _241
REMARK   86  A    between atoms: _241  and  _242
REMARK   87  A    between atoms: _245  and  _247
REMARK   88  A    between atoms: _247  and  _248
REMARK   89  A    between atoms: _247  and  _250
REMARK   90  A    between atoms: _250  and  _251
REMARK   91  A    between atoms: _261  and  _263
REMARK   92  A    between atoms: _263  and  _264
REMARK   93  A    between atoms: _263  and  _266
REMARK   94  A    between atoms: _266  and  _267
REMARK   95  A    between atoms: _272  and  _274
REMARK   96  A    between atoms: _274  and  _275
REMARK   97  A    between atoms: _274  and  _277
REMARK   98  A    between atoms: _277  and  _278
REMARK   99  A    between atoms: _282  and  ZN_385
REMARK  100  A    between atoms: _283  and  _285
REMARK  101  A    between atoms: _285  and  _286
REMARK  102  A    between atoms: _285  and  _288
REMARK  103  A    between atoms: _288  and  _289
REMARK  104  A    between atoms: _292  and  _294
REMARK  105  A    between atoms: _294  and  _295
REMARK  106  A    between atoms: _297  and  _299
REMARK  107  A    between atoms: _299  and  _300
REMARK  108  A    between atoms: _299  and  _302
REMARK  109  A    between atoms: _302  and  _303
REMARK  110  A    between atoms: _306  and  _308
REMARK  111  A    between atoms: _308  and  _309
REMARK  112  A    between atoms: _308  and  _311
REMARK  113  A    between atoms: _311  and  _312
REMARK  114  A    between atoms: _315  and  _317
REMARK  115  A    between atoms: _317  and  _318
REMARK  116  A    between atoms: _321  and  _323
REMARK  117  A    between atoms: _323  and  _324
REMARK  118  A    between atoms: _323  and  _326
REMARK  119  A    between atoms: _326  and  _327
REMARK  120  A    between atoms: _332  and  _333
REMARK  121  A    between atoms: _335  and  _337
REMARK  122  A    between atoms: _337  and  _338
REMARK  123  A    between atoms: _337  and  _340
REMARK  124  A    between atoms: _340  and  _341
REMARK  125  A    between atoms: _344  and  _346
REMARK  126  A    between atoms: _346  and  _347
REMARK  127  A    between atoms: _346  and  _349
REMARK  128  A    between atoms: _349  and  _350
REMARK  129  A    between atoms: _350  and  _351
REMARK  130  A    between atoms: _354  and  _356
REMARK  131  A    between atoms: _356  and  _357
REMARK  132  A    between atoms: _356  and  _359
REMARK  133  A    between atoms: _359  and  _360
REMARK  134  A    between atoms: _360  and  _361
REMARK  135  A    between atoms: _361  and  _362
REMARK  136  A    between atoms: _371  and  _373
REMARK  137  A    between atoms: _373  and  _374
REMARK  138  A    between atoms: _376  and  _378
REMARK  139  A    between atoms: _378  and  _379
REMARK  140  A    between atoms: _378  and  _381
REMARK  141  A    between atoms: _381  and  _382
REMARK                            x       y       z     vdW  Elec       q    Type
REMARK                         _______ _______ _______ _____ _____    ______ ____
ROOT
ATOM      1  NE  ARG A   1      28.539  60.765   6.092  0.00  0.00    -0.265 N 
ATOM      2  CZ  ARG A   1      27.636  61.396   6.837  0.00  0.00    +0.342 C 
ATOM      3  NH2 ARG A   1      28.062  62.188   7.830  0.00  0.00    -0.292 N 
ATOM      4 HH21 ARG A   1      27.374  62.691   8.425  0.00  0.00    +0.255 HD
ATOM      5 HH22 ARG A   1      29.081  62.300   8.005  0.00  0.00    +0.255 HD
ATOM      6  NH1 ARG A   1      26.317  61.262   6.588  0.00  0.00    -0.292 N 
ATOM      7 HH11 ARG A   1      25.623  61.762   7.179  0.00  0.00    +0.255 HD
ATOM      8 HH12 ARG A   1      25.994  60.659   5.805  0.00  0.00    +0.255 HD
ATOM      9  HE  ARG A   1      29.539  60.915   6.336  0.00  0.00    +0.259 HD
ENDROOT
BRANCH   1  10
ATOM     10  CD  ARG A   1      28.262  59.886   4.970  0.00  0.00    +0.174 C 
BRANCH  10  11
ATOM     11  CG  ARG A   1      27.974  58.441   5.348  0.00  0.00    +0.045 C 
BRANCH  11  12
ATOM     12  CB  ARG A   1      27.869  57.671   4.044  0.00  0.00    +0.029 C 
BRANCH  12  13
ATOM     13  CA  ARG A   1      27.224  56.275   4.217  0.00  0.00    +0.133 C 
BRANCH  13  14
ATOM     14  N   ARG A   1      28.175  55.349   4.824  0.00  0.00    -0.239 NA
ATOM     15  H   ARG A   1      29.186  55.388   4.582  0.00  0.00    +0.142 HD
ENDBRANCH  13  14
BRANCH  13  16
ATOM     16  C   ARG A   1      26.675  55.727   2.922  0.00  0.00    +0.224 C 
ATOM     17  O   ARG A   1      27.148  56.017   1.811  0.00  0.00    -0.287 OA
ENDBRANCH  13  16
ENDBRANCH  12  13
ENDBRANCH  11  12
ENDBRANCH  10  11
ENDBRANCH   1  10
TORSDOF 6
REMARK  Name = ../refined-set-2016/3d4y/3d4y_pocket.pdb
REMARK  141 active torsions:
REMARK  status: ('A' for Active; 'I' for Inactive)
REMARK    1  A    between atoms: _1  and  _3
REMARK    2  A    between atoms: _14  and  _17
REMARK    3  A    between atoms: _17  and  _18
REMARK    4  A    between atoms: _25  and  _26
REMARK    5  A    between atoms: _33  and  _34
REMARK    6  A    between atoms: _39  and  _41
REMARK    7  A    between atoms: _41  and  _42
REMARK    8  A    between atoms: _44  and  _46
REMARK    9  A    between atoms: _46  and  _47
REMARK   10  A    between atoms: _46  and  _49
REMARK   11  A    between atoms: _49  and  _50
REMARK   12  A    between atoms: _60  and  _62
REMARK   13  A    between atoms: _62  and  _63
REMARK   14  A    between atoms: _62  and  _65
REMARK   15  A    between atoms: _65  and  _66
REMARK   16  A    between atoms: _69  and  _71
REMARK   17  A    between atoms: _71  and  _72
REMARK   18  A    between atoms: _71  and  _74
REMARK   19  A    between atoms: _74  and  _75
REMARK   20  A    between atoms: _80  and  _81
REMARK   21  A    between atoms: _83  and  _85
REMARK   22  A    between atoms: _85  and  _86
REMARK   23  A    between atoms: _85  and  _88
REMARK   24  A    between atoms: _88  and  _89
REMARK   25  A    between atoms: _89  and  _90
REMARK   26  A    between atoms: _93  and  _95
REMARK   27  A    between atoms: _95  and  _96
REMARK   28  A    between atoms: _95  and  _98
REMARK   29  A    between atoms: _98  and  _99
REMARK   30  A    between atoms: _99  and  _100
REMARK   31  A    between atoms: _102  and  _104
REMARK   32  A    between atoms: _104  and  _105
REMARK   33  A    between atoms: _104  and  _107
REMARK   34  A    between atoms: _107  and  _108
REMARK   35  A    between atoms: _111  and  _113
REMARK   36  A    between atoms: _113  and  _114
REMARK   37  A    between atoms: _113  and  _116
REMARK   38  A    between atoms: _116  and  _117
REMARK   39  A    between atoms: _117  and  _119
REMARK   40  A    between atoms: _119  and  ZN_385
REMARK   41  A    between atoms: _121  and  _122
REMARK   42  A    between atoms: _127  and  _129
REMARK   43  A    between atoms: _129  and  _130
REMARK   44  A    between atoms: _129  and  _132
REMARK   45  A    between atoms: _132  and  _133
REMARK   46  A    between atoms: _139  and  _141
REMARK   47  A    between atoms: _141  and  _142
REMARK   48  A    between atoms: _141  and  _144
REMARK   49  A    between atoms: _144  and  _145
REMARK   50  A    between atoms: _145  and  _146
REMARK   51  A    between atoms: _146  and  _147
REMARK   52  A    between atoms: _156  and  _158
REMARK   53  A    between atoms: _158  and  _159
REMARK   54  A    between atoms: _158  and  _161
REMARK   55  A    between atoms: _161  and  _162
REMARK   56  A    between atoms: _167  and  _168
REMARK   57  A    between atoms: _170  and  _172
REMARK   58  A    between atoms: _172  and  _173
REMARK   59  A    between atoms: _172  and  _175
REMARK   60  A    between atoms: _175  and  _176
REMARK   61  A    between atoms: _178  and  _180
REMARK   62  A    between atoms: _180  and  _181
REMARK   63  A    between atoms: _180  and  _183
REMARK   64  A    between atoms: _183  and  _184
REMARK   65  A    between atoms: _189  and  _190
REMARK   66  A    between atoms: _192  and  _194
REMARK   67  A    between atoms: _194  and  _195
REMARK   68  A    between atoms: _194  and  _197
REMARK   69  A    between atoms: _197  and  _198
REMARK   70  A    between atoms: _201  and  _203
REMARK   71  A    between atoms: _203  and  _204
REMARK   72  A    between atoms: _203  and  _206
REMARK   73  A    between atoms: _206  and  _207
REMARK   74  A    between atoms: _210  and  _212
REMARK   75  A    between atoms: _212  and  _213
REMARK   76  A    between atoms: _212  and  _215
REMARK   77  A    between atoms: _215  and  _216
REMARK   78  A    between atoms: _222  and  _224
REMARK   79  A    between atoms: _224  and  _225
REMARK   80  A    between atoms: _224  and  _227
REMARK   81  A    between atoms: _227  and  _228
REMARK   82  A    between atoms: _233  and  _234
REMARK   83  A    between atoms: _236  and  _238
REMARK   84  A    between atoms: _238  and  _239
REMARK   85  A    between atoms: _238  and  _241
REMARK   86  A    between atoms: _241  and  _242
REMARK   87  A    between atoms: _245  and  _247
REMARK   88  A    between atoms: _247  and  _248
REMARK   89  A    between atoms: _247  and  _250
REMARK   90  A    between atoms: _250  and  _251
REMARK   91  A    between atoms: _261  and  _263
REMARK   92  A    between atoms: _263  and  _264
REMARK   93  A    between atoms: _263  and  _266
REMARK   94  A    between atoms: _266  and  _267
REMARK   95  A    between atoms: _272  and  _274
REMARK   96  A    between atoms: _274  and  _275
REMARK   97  A    between atoms: _274  and  _277
REMARK   98  A    between atoms: _277  and  _278
REMARK   99  A    between atoms: _282  and  ZN_385
REMARK  100  A    between atoms: _283  and  _285
REMARK  101  A    between atoms: _285  and  _286
REMARK  102  A    between atoms: _285  and  _288
REMARK  103  A    between atoms: _288  and  _289
REMARK  104  A    between atoms: _292  and  _294
REMARK  105  A    between atoms: _294  and  _295
REMARK  106  A    between atoms: _297  and  _299
REMARK  107  A    between atoms: _299  and  _300
REMARK  108  A    between atoms: _299  and  _302
REMARK  109  A    between atoms: _302  and  _303
REMARK  110  A    between atoms: _306  and  _308
REMARK  111  A    between atoms: _308  and  _309
REMARK  112  A    between atoms: _308  and  _311
REMARK  113  A    between atoms: _311  and  _312
REMARK  114  A    between atoms: _315  and  _317
REMARK  115  A    between atoms: _317  and  _318
REMARK  116  A    between atoms: _321  and  _323
REMARK  117  A    between atoms: _323  and  _324
REMARK  118  A    between atoms: _323  and  _326
REMARK  119  A    between atoms: _326  and  _327
REMARK  120  A    between atoms: _332  and  _333
REMARK  121  A    between atoms: _335  and  _337
REMARK  122  A    between atoms: _337  and  _338
REMARK  123  A    between atoms: _337  and  _340
REMARK  124  A    between atoms: _340  and  _341
REMARK  125  A    between atoms: _344  and  _346
REMARK  126  A    between atoms: _346  and  _347
REMARK  127  A    between atoms: _346  and  _349
REMARK  128  A    between atoms: _349  and  _350
REMARK  129  A    between atoms: _350  and  _351
REMARK  130  A    between atoms: _354  and  _356
REMARK  131  A    between atoms: _356  and  _357
REMARK  132  A    between atoms: _356  and  _359
REMARK  133  A    between atoms: _359  and  _360
REMARK  134  A    between atoms: _360  and  _361
REMARK  135  A    between atoms: _361  and  _362
REMARK  136  A    between atoms: _371  and  _373
REMARK  137  A    between atoms: _373  and  _374
REMARK  138  A    between atoms: _376  and  _378
REMARK  139  A    between atoms: _378  and  _379
REMARK  140  A    between atoms: _378  and  _381
REMARK  141  A    between atoms: _381  and  _382
REMARK                            x       y       z     vdW  Elec       q    Type
REMARK                         _______ _______ _______ _____ _____    ______ ____
ROOT
ATOM      1  CA  SER A   2      25.046  57.692  11.612  0.00  0.00    +0.178 C 
ENDROOT
BRANCH   1   3
ATOM      2  C   TYR A   1      23.061  57.285  10.244  0.00  0.00    +0.239 C 
ATOM      3  N   SER A   2      23.797  56.978  11.293  0.00  0.00    -0.295 N 
ATOM      4  H   SER A   2      23.486  56.206  11.917  0.00  0.00    +0.150 HD
ATOM      5  O   TYR A   1      23.441  58.115   9.408  0.00  0.00    -0.274 OA
BRANCH   2   6
ATOM      6  CA  TYR A   1      21.709  56.582  10.059  0.00  0.00    +0.149 C 
BRANCH   6   7
ATOM      7  N   TYR A   1      21.682  55.277  10.764  0.00  0.00    -0.238 NA
ATOM      8  H   TYR A   1      21.205  55.197  11.685  0.00  0.00    +0.142 HD
ENDBRANCH   6   7
BRANCH   6   9
ATOM      9  CB  TYR A   1      20.562  57.446  10.604  0.00  0.00    +0.053 C 
BRANCH   9  10
ATOM     10  CG  TYR A   1      20.683  58.942  10.420  0.00  0.00    -0.020 A 
ATOM     11  CD2 TYR A   1      21.165  59.714  11.460  0.00  0.00    -0.001 A 
ATOM     12  CE2 TYR A   1      21.277  61.035  11.376  0.00  0.00    +0.036 A 
ATOM     13  CZ  TYR A   1      20.889  61.681  10.218  0.00  0.00    +0.134 A 
ATOM     14  CE1 TYR A   1      20.378  60.970   9.147  0.00  0.00    +0.036 A 
ATOM     15  CD1 TYR A   1      20.279  59.563   9.252  0.00  0.00    -0.001 A 
BRANCH  13  16
ATOM     16  OH  TYR A   1      21.025  63.059  10.230  0.00  0.00    -0.506 OA
ATOM     17  HH  TYR A   1      20.723  63.427   9.362  0.00  0.00    +0.292 HD
ENDBRANCH  13  16
ENDBRANCH   9  10
ENDBRANCH   6   9
ENDBRANCH   2   6
ENDBRANCH   1   3
BRANCH   1  18
ATOM     18  C   SER A   2      26.056  56.780  12.257  0.00  0.00    +0.243 C 
ATOM     19  O   SER A   2      25.693  55.660  12.682  0.00  0.00    -0.273 OA
ATOM     20  N   TYR A   3      27.304  57.261  12.412  0.00  0.00    -0.298 N 
ATOM     21  H   TYR A   3      27.551  58.197  12.031  0.00  0.00    +0.150 HD
BRANCH  20  22
ATOM     22  CA  TYR A   3      28.311  56.469  13.115  0.00  0.00    +0.141 C 
BRANCH  22  23
ATOM     23  C   TYR A   3      28.417  56.897  14.568  0.00  0.00    +0.227 C 
ATOM     24  O   TYR A   3      29.282  56.360  15.286  0.00  0.00    -0.286 OA
ENDBRANCH  22  23
BRANCH  22  25
ATOM     25  CB  TYR A   3      29.696  56.641  12.393  0.00  0.00    +0.054 C 
BRANCH  25  26
ATOM     26  CG  TYR A   3      30.119  58.089  12.294  0.00  0.00    -0.020 A 
ATOM     27  CD2 TYR A   3      30.594  58.781  13.424  0.00  0.00    -0.001 A 
ATOM     28  CE2 TYR A   3      30.974  60.154  13.325  0.00  0.00    +0.036 A 
ATOM     29  CZ  TYR A   3      30.906  60.769  12.061  0.00  0.00    +0.134 A 
ATOM     30  CE1 TYR A   3      30.469  60.073  10.960  0.00  0.00    +0.036 A 
ATOM     31  CD1 TYR A   3      30.080  58.764  11.072  0.00  0.00    -0.001 A 
BRANCH  29  32
ATOM     32  OH  TYR A   3      31.227  62.101  11.795  0.00  0.00    -0.506 OA
ATOM     33  HH  TYR A   3      31.532  62.538  12.629  0.00  0.00    +0.292 HD
ENDBRANCH  29  32
ENDBRANCH  25  26
ENDBRANCH  22  25
ENDBRANCH  20  22
ENDBRANCH   1  18
BRANCH   1  34
ATOM     34  CB  SER A   2      24.743  58.876  12.545  0.00  0.00    +0.166 C 
BRANCH  34  35
ATOM     35  OG  SER A   2      25.949  59.501  12.953  0.00  0.00    -0.380 OA
ATOM     36  H   SER A   2      26.434  59.832  12.156  0.00  0.00    +0.211 HD
ENDBRANCH  34  35
ENDBRANCH   1  34
TORSDOF 14
REMARK  Name = ../refined-set-2016/3d4y/3d4y_pocket.pdb
REMARK  141 active torsions:
REMARK  status: ('A' for Active; 'I' for Inactive)
REMARK    1  A    between atoms: _1  and  _3
REMARK    2  A    between atoms: _14  and  _17
REMARK    3  A    between atoms: _17  and  _18
REMARK    4  A    between atoms: _25  and  _26
REMARK    5  A    between atoms: _33  and  _34
REMARK    6  A    between atoms: _39  and  _41
REMARK    7  A    between atoms: _41  and  _42
REMARK    8  A    between atoms: _44  and  _46
REMARK    9  A    between atoms: _46  and  _47
REMARK   10  A    between atoms: _46  and  _49
REMARK   11  A    between atoms: _49  and  _50
REMARK   12  A    between atoms: _60  and  _62
REMARK   13  A    between atoms: _62  and  _63
REMARK   14  A    between atoms: _62  and  _65
REMARK   15  A    between atoms: _65  and  _66
REMARK   16  A    between atoms: _69  and  _71
REMARK   17  A    between atoms: _71  and  _72
REMARK   18  A    between atoms: _71  and  _74
REMARK   19  A    between atoms: _74  and  _75
REMARK   20  A    between atoms: _80  and  _81
REMARK   21  A    between atoms: _83  and  _85
REMARK   22  A    between atoms: _85  and  _86
REMARK   23  A    between atoms: _85  and  _88
REMARK   24  A    between atoms: _88  and  _89
REMARK   25  A    between atoms: _89  and  _90
REMARK   26  A    between atoms: _93  and  _95
REMARK   27  A    between atoms: _95  and  _96
REMARK   28  A    between atoms: _95  and  _98
REMARK   29  A    between atoms: _98  and  _99
REMARK   30  A    between atoms: _99  and  _100
REMARK   31  A    between atoms: _102  and  _104
REMARK   32  A    between atoms: _104  and  _105
REMARK   33  A    between atoms: _104  and  _107
REMARK   34  A    between atoms: _107  and  _108
REMARK   35  A    between atoms: _111  and  _113
REMARK   36  A    between atoms: _113  and  _114
REMARK   37  A    between atoms: _113  and  _116
REMARK   38  A    between atoms: _116  and  _117
REMARK   39  A    between atoms: _117  and  _119
REMARK   40  A    between atoms: _119  and  ZN_385
REMARK   41  A    between atoms: _121  and  _122
REMARK   42  A    between atoms: _127  and  _129
REMARK   43  A    between atoms: _129  and  _130
REMARK   44  A    between atoms: _129  and  _132
REMARK   45  A    between atoms: _132  and  _133
REMARK   46  A    between atoms: _139  and  _141
REMARK   47  A    between atoms: _141  and  _142
REMARK   48  A    between atoms: _141  and  _144
REMARK   49  A    between atoms: _144  and  _145
REMARK   50  A    between atoms: _145  and  _146
REMARK   51  A    between atoms: _146  and  _147
REMARK   52  A    between atoms: _156  and  _158
REMARK   53  A    between atoms: _158  and  _159
REMARK   54  A    between atoms: _158  and  _161
REMARK   55  A    between atoms: _161  and  _162
REMARK   56  A    between atoms: _167  and  _168
REMARK   57  A    between atoms: _170  and  _172
REMARK   58  A    between atoms: _172  and  _173
REMARK   59  A    between atoms: _172  and  _175
REMARK   60  A    between atoms: _175  and  _176
REMARK   61  A    between atoms: _178  and  _180
REMARK   62  A    between atoms: _180  and  _181
REMARK   63  A    between atoms: _180  and  _183
REMARK   64  A    between atoms: _183  and  _184
REMARK   65  A    between atoms: _189  and  _190
REMARK   66  A    between atoms: _192  and  _194
REMARK   67  A    between atoms: _194  and  _195
REMARK   68  A    between atoms: _194  and  _197
REMARK   69  A    between atoms: _197  and  _198
REMARK   70  A    between atoms: _201  and  _203
REMARK   71  A    between atoms: _203  and  _204
REMARK   72  A    between atoms: _203  and  _206
REMARK   73  A    between atoms: _206  and  _207
REMARK   74  A    between atoms: _210  and  _212
REMARK   75  A    between atoms: _212  and  _213
REMARK   76  A    between atoms: _212  and  _215
REMARK   77  A    between atoms: _215  and  _216
REMARK   78  A    between atoms: _222  and  _224
REMARK   79  A    between atoms: _224  and  _225
REMARK   80  A    between atoms: _224  and  _227
REMARK   81  A    between atoms: _227  and  _228
REMARK   82  A    between atoms: _233  and  _234
REMARK   83  A    between atoms: _236  and  _238
REMARK   84  A    between atoms: _238  and  _239
REMARK   85  A    between atoms: _238  and  _241
REMARK   86  A    between atoms: _241  and  _242
REMARK   87  A    between atoms: _245  and  _247
REMARK   88  A    between atoms: _247  and  _248
REMARK   89  A    between atoms: _247  and  _250
REMARK   90  A    between atoms: _250  and  _251
REMARK   91  A    between atoms: _261  and  _263
REMARK   92  A    between atoms: _263  and  _264
REMARK   93  A    between atoms: _263  and  _266
REMARK   94  A    between atoms: _266  and  _267
REMARK   95  A    between atoms: _272  and  _274
REMARK   96  A    between atoms: _274  and  _275
REMARK   97  A    between atoms: _274  and  _277
REMARK   98  A    between atoms: _277  and  _278
REMARK   99  A    between atoms: _282  and  ZN_385
REMARK  100  A    between atoms: _283  and  _285
REMARK  101  A    between atoms: _285  and  _286
REMARK  102  A    between atoms: _285  and  _288
REMARK  103  A    between atoms: _288  and  _289
REMARK  104  A    between atoms: _292  and  _294
REMARK  105  A    between atoms: _294  and  _295
REMARK  106  A    between atoms: _297  and  _299
REMARK  107  A    between atoms: _299  and  _300
REMARK  108  A    between atoms: _299  and  _302
REMARK  109  A    between atoms: _302  and  _303
REMARK  110  A    between atoms: _306  and  _308
REMARK  111  A    between atoms: _308  and  _309
REMARK  112  A    between atoms: _308  and  _311
REMARK  113  A    between atoms: _311  and  _312
REMARK  114  A    between atoms: _315  and  _317
REMARK  115  A    between atoms: _317  and  _318
REMARK  116  A    between atoms: _321  and  _323
REMARK  117  A    between atoms: _323  and  _324
REMARK  118  A    between atoms: _323  and  _326
REMARK  119  A    between atoms: _326  and  _327
REMARK  120  A    between atoms: _332  and  _333
REMARK  121  A    between atoms: _335  and  _337
REMARK  122  A    between atoms: _337  and  _338
REMARK  123  A    between atoms: _337  and  _340
REMARK  124  A    between atoms: _340  and  _341
REMARK  125  A    between atoms: _344  and  _346
REMARK  126  A    between atoms: _346  and  _347
REMARK  127  A    between atoms: _346  and  _349
REMARK  128  A    between atoms: _349  and  _350
REMARK  129  A    between atoms: _350  and  _351
REMARK  130  A    between atoms: _354  and  _356
REMARK  131  A    between atoms: _356  and  _357
REMARK  132  A    between atoms: _356  and  _359
REMARK  133  A    between atoms: _359  and  _360
REMARK  134  A    between atoms: _360  and  _361
REMARK  135  A    between atoms: _361  and  _362
REMARK  136  A    between atoms: _371  and  _373
REMARK  137  A    between atoms: _373  and  _374
REMARK  138  A    between atoms: _376  and  _378
REMARK  139  A    between atoms: _378  and  _379
REMARK  140  A    between atoms: _378  and  _381
REMARK  141  A    between atoms: _381  and  _382
REMARK                            x       y       z     vdW  Elec       q    Type
REMARK                         _______ _______ _______ _____ _____    ______ ____
ROOT
ATOM      1  CA  ASP A   2      33.720  63.467  16.055  0.00  0.00    +0.160 C 
ENDROOT
BRANCH   1   4
ATOM      2  C   ASP A   1      33.076  61.329  17.039  0.00  0.00    +0.239 C 
ATOM      3  O   ASP A   1      34.257  61.017  17.231  0.00  0.00    -0.274 OA
ATOM      4  N   ASP A   2      32.707  62.498  16.532  0.00  0.00    -0.297 N 
ATOM      5  H   ASP A   2      31.697  62.736  16.469  0.00  0.00    +0.150 HD
BRANCH   2   6
ATOM      6  CA  ASP A   1      31.934  60.337  17.373  0.00  0.00    +0.156 C 
BRANCH   6   7
ATOM      7  N   ASP A   1      32.557  59.234  18.058  0.00  0.00    -0.238 NA
ATOM      8  H   ASP A   1      33.571  59.296  18.282  0.00  0.00    +0.142 HD
ENDBRANCH   6   7
BRANCH   6   9
ATOM      9  CB  ASP A   1      30.857  60.969  18.280  0.00  0.00    +0.140 C 
BRANCH   9  10
ATOM     10  CG  ASP A   1      29.765  61.770  17.533  0.00  0.00    +0.367 C 
ATOM     11  OD2 ASP A   1      28.715  62.003  18.194  0.00  0.00    -0.246 OA
ATOM     12  OD1 ASP A   1      29.947  62.202  16.369  0.00  0.00    -0.246 OA
ENDBRANCH   9  10
ENDBRANCH   6   9
ENDBRANCH   2   6
ENDBRANCH   1   4
BRANCH   1  13
ATOM     13  C   ASP A   2      34.584  64.021  17.185  0.00  0.00    +0.241 C 
ATOM     14  O   ASP A   2      34.044  64.443  18.209  0.00  0.00    -0.273 OA
ATOM     15  N   PHE A   3      35.917  63.914  17.036  0.00  0.00    -0.298 N 
ATOM     16  H   PHE A   3      36.283  63.445  16.183  0.00  0.00    +0.150 HD
BRANCH  15  17
ATOM     17  CA  PHE A   3      36.879  64.425  18.016  0.00  0.00    +0.141 C 
BRANCH  17  18
ATOM     18  C   PHE A   3      36.562  63.997  19.463  0.00  0.00    +0.227 C 
ATOM     19  O   PHE A   3      36.742  64.757  20.432  0.00  0.00    -0.286 OA
ENDBRANCH  17  18
BRANCH  17  20
ATOM     20  CB  PHE A   3      36.983  65.946  17.878  0.00  0.00    +0.054 C 
BRANCH  20  21
ATOM     21  CG  PHE A   3      37.587  66.390  16.557  0.00  0.00    -0.020 A 
ATOM     22  CD2 PHE A   3      38.983  66.358  16.366  0.00  0.00    -0.004 A 
ATOM     23  CE2 PHE A   3      39.545  66.780  15.125  0.00  0.00    -0.000 A 
ATOM     24  CZ  PHE A   3      38.703  67.193  14.076  0.00  0.00    -0.000 A 
ATOM     25  CE1 PHE A   3      37.312  67.228  14.245  0.00  0.00    -0.000 A 
ATOM     26  CD1 PHE A   3      36.750  66.799  15.479  0.00  0.00    -0.004 A 
ENDBRANCH  20  21
ENDBRANCH  17  20
ENDBRANCH  15  17
ENDBRANCH   1  13
BRANCH   1  27
ATOM     27  CB  ASP A   2      33.037  64.637  15.389  0.00  0.00    +0.143 C 
BRANCH  27  28
ATOM     28  CG  ASP A   2      32.370  64.306  14.061  0.00  0.00    +0.367 C 
ATOM     29  OD2 ASP A   2      32.303  63.127  13.629  0.00  0.00    -0.246 OA
ATOM     30  OD1 ASP A   2      31.942  65.320  13.441  0.00  0.00    -0.246 OA
ENDBRANCH  27  28
ENDBRANCH   1  27
TORSDOF 12
REMARK  Name = ../refined-set-2016/3d4y/3d4y_pocket.pdb
REMARK  141 active torsions:
REMARK  status: ('A' for Active; 'I' for Inactive)
REMARK    1  A    between atoms: _1  and  _3
REMARK    2  A    between atoms: _14  and  _17
REMARK    3  A    between atoms: _17  and  _18
REMARK    4  A    between atoms: _25  and  _26
REMARK    5  A    between atoms: _33  and  _34
REMARK    6  A    between atoms: _39  and  _41
REMARK    7  A    between atoms: _41  and  _42
REMARK    8  A    between atoms: _44  and  _46
REMARK    9  A    between atoms: _46  and  _47
REMARK   10  A    between atoms: _46  and  _49
REMARK   11  A    between atoms: _49  and  _50
REMARK   12  A    between atoms: _60  and  _62
REMARK   13  A    between atoms: _62  and  _63
REMARK   14  A    between atoms: _62  and  _65
REMARK   15  A    between atoms: _65  and  _66
REMARK   16  A    between atoms: _69  and  _71
REMARK   17  A    between atoms: _71  and  _72
REMARK   18  A    between atoms: _71  and  _74
REMARK   19  A    between atoms: _74  and  _75
REMARK   20  A    between atoms: _80  and  _81
REMARK   21  A    between atoms: _83  and  _85
REMARK   22  A    between atoms: _85  and  _86
REMARK   23  A    between atoms: _85  and  _88
REMARK   24  A    between atoms: _88  and  _89
REMARK   25  A    between atoms: _89  and  _90
REMARK   26  A    between atoms: _93  and  _95
REMARK   27  A    between atoms: _95  and  _96
REMARK   28  A    between atoms: _95  and  _98
REMARK   29  A    between atoms: _98  and  _99
REMARK   30  A    between atoms: _99  and  _100
REMARK   31  A    between atoms: _102  and  _104
REMARK   32  A    between atoms: _104  and  _105
REMARK   33  A    between atoms: _104  and  _107
REMARK   34  A    between atoms: _107  and  _108
REMARK   35  A    between atoms: _111  and  _113
REMARK   36  A    between atoms: _113  and  _114
REMARK   37  A    between atoms: _113  and  _116
REMARK   38  A    between atoms: _116  and  _117
REMARK   39  A    between atoms: _117  and  _119
REMARK   40  A    between atoms: _119  and  ZN_385
REMARK   41  A    between atoms: _121  and  _122
REMARK   42  A    between atoms: _127  and  _129
REMARK   43  A    between atoms: _129  and  _130
REMARK   44  A    between atoms: _129  and  _132
REMARK   45  A    between atoms: _132  and  _133
REMARK   46  A    between atoms: _139  and  _141
REMARK   47  A    between atoms: _141  and  _142
REMARK   48  A    between atoms: _141  and  _144
REMARK   49  A    between atoms: _144  and  _145
REMARK   50  A    between atoms: _145  and  _146
REMARK   51  A    between atoms: _146  and  _147
REMARK   52  A    between atoms: _156  and  _158
REMARK   53  A    between atoms: _158  and  _159
REMARK   54  A    between atoms: _158  and  _161
REMARK   55  A    between atoms: _161  and  _162
REMARK   56  A    between atoms: _167  and  _168
REMARK   57  A    between atoms: _170  and  _172
REMARK   58  A    between atoms: _172  and  _173
REMARK   59  A    between atoms: _172  and  _175
REMARK   60  A    between atoms: _175  and  _176
REMARK   61  A    between atoms: _178  and  _180
REMARK   62  A    between atoms: _180  and  _181
REMARK   63  A    between atoms: _180  and  _183
REMARK   64  A    between atoms: _183  and  _184
REMARK   65  A    between atoms: _189  and  _190
REMARK   66  A    between atoms: _192  and  _194
REMARK   67  A    between atoms: _194  and  _195
REMARK   68  A    between atoms: _194  and  _197
REMARK   69  A    between atoms: _197  and  _198
REMARK   70  A    between atoms: _201  and  _203
REMARK   71  A    between atoms: _203  and  _204
REMARK   72  A    between atoms: _203  and  _206
REMARK   73  A    between atoms: _206  and  _207
REMARK   74  A    between atoms: _210  and  _212
REMARK   75  A    between atoms: _212  and  _213
REMARK   76  A    between atoms: _212  and  _215
REMARK   77  A    between atoms: _215  and  _216
REMARK   78  A    between atoms: _222  and  _224
REMARK   79  A    between atoms: _224  and  _225
REMARK   80  A    between atoms: _224  and  _227
REMARK   81  A    between atoms: _227  and  _228
REMARK   82  A    between atoms: _233  and  _234
REMARK   83  A    between atoms: _236  and  _238
REMARK   84  A    between atoms: _238  and  _239
REMARK   85  A    between atoms: _238  and  _241
REMARK   86  A    between atoms: _241  and  _242
REMARK   87  A    between atoms: _245  and  _247
REMARK   88  A    between atoms: _247  and  _248
REMARK   89  A    between atoms: _247  and  _250
REMARK   90  A    between atoms: _250  and  _251
REMARK   91  A    between atoms: _261  and  _263
REMARK   92  A    between atoms: _263  and  _264
REMARK   93  A    between atoms: _263  and  _266
REMARK   94  A    between atoms: _266  and  _267
REMARK   95  A    between atoms: _272  and  _274
REMARK   96  A    between atoms: _274  and  _275
REMARK   97  A    between atoms: _274  and  _277
REMARK   98  A    between atoms: _277  and  _278
REMARK   99  A    between atoms: _282  and  ZN_385
REMARK  100  A    between atoms: _283  and  _285
REMARK  101  A    between atoms: _285  and  _286
REMARK  102  A    between atoms: _285  and  _288
REMARK  103  A    between atoms: _288  and  _289
REMARK  104  A    between atoms: _292  and  _294
REMARK  105  A    between atoms: _294  and  _295
REMARK  106  A    between atoms: _297  and  _299
REMARK  107  A    between atoms: _299  and  _300
REMARK  108  A    between atoms: _299  and  _302
REMARK  109  A    between atoms: _302  and  _303
REMARK  110  A    between atoms: _306  and  _308
REMARK  111  A    between atoms: _308  and  _309
REMARK  112  A    between atoms: _308  and  _311
REMARK  113  A    between atoms: _311  and  _312
REMARK  114  A    between atoms: _315  and  _317
REMARK  115  A    between atoms: _317  and  _318
REMARK  116  A    between atoms: _321  and  _323
REMARK  117  A    between atoms: _323  and  _324
REMARK  118  A    between atoms: _323  and  _326
REMARK  119  A    between atoms: _326  and  _327
REMARK  120  A    between atoms: _332  and  _333
REMARK  121  A    between atoms: _335  and  _337
REMARK  122  A    between atoms: _337  and  _338
REMARK  123  A    between atoms: _337  and  _340
REMARK  124  A    between atoms: _340  and  _341
REMARK  125  A    between atoms: _344  and  _346
REMARK  126  A    between atoms: _346  and  _347
REMARK  127  A    between atoms: _346  and  _349
REMARK  128  A    between atoms: _349  and  _350
REMARK  129  A    between atoms: _350  and  _351
REMARK  130  A    between atoms: _354  and  _356
REMARK  131  A    between atoms: _356  and  _357
REMARK  132  A    between atoms: _356  and  _359
REMARK  133  A    between atoms: _359  and  _360
REMARK  134  A    between atoms: _360  and  _361
REMARK  135  A    between atoms: _361  and  _362
REMARK  136  A    between atoms: _371  and  _373
REMARK  137  A    between atoms: _373  and  _374
REMARK  138  A    between atoms: _376  and  _378
REMARK  139  A    between atoms: _378  and  _379
REMARK  140  A    between atoms: _378  and  _381
REMARK  141  A    between atoms: _381  and  _382
REMARK                            x       y       z     vdW  Elec       q    Type
REMARK                         _______ _______ _______ _____ _____    ______ ____
ROOT
ATOM      1  CG  TYR A   1      24.827  59.293   1.237  0.00  0.00    -0.020 A 
ATOM      2  CD2 TYR A   1      24.348  58.192   1.968  0.00  0.00    -0.001 A 
ATOM      3  CE2 TYR A   1      24.212  58.284   3.334  0.00  0.00    +0.036 A 
ATOM      4  CZ  TYR A   1      24.555  59.478   3.988  0.00  0.00    +0.134 A 
ATOM      5  CE1 TYR A   1      25.027  60.588   3.292  0.00  0.00    +0.036 A 
ATOM      6  CD1 TYR A   1      25.154  60.470   1.919  0.00  0.00    -0.001 A 
ENDROOT
BRANCH   4   7
ATOM      7  OH  TYR A   1      24.439  59.556   5.357  0.00  0.00    -0.506 OA
ATOM      8  HH  TYR A   1      24.094  58.697   5.707  0.00  0.00    +0.292 HD
ENDBRANCH   4   7
BRANCH   1   9
ATOM      9  CB  TYR A   1      25.054  59.168  -0.265  0.00  0.00    +0.051 C 
BRANCH   9  10
ATOM     10  CA  TYR A   1      23.837  58.934  -1.140  0.00  0.00    +0.137 C 
BRANCH  10  11
ATOM     11  N   TYR A   1      24.317  59.076  -2.502  0.00  0.00    -0.239 NA
ATOM     12  H   TYR A   1      25.259  59.480  -2.677  0.00  0.00    +0.142 HD
ENDBRANCH  10  11
BRANCH  10  13
ATOM     13  C   TYR A   1      22.736  59.928  -0.780  0.00  0.00    +0.224 C 
ATOM     14  O   TYR A   1      22.745  61.109  -1.206  0.00  0.00    -0.287 OA
ENDBRANCH  10  13
ENDBRANCH   9  10
ENDBRANCH   1   9
TORSDOF 5
REMARK  Name = ../refined-set-2016/3d4y/3d4y_pocket.pdb
REMARK  141 active torsions:
REMARK  status: ('A' for Active; 'I' for Inactive)
REMARK    1  A    between atoms: _1  and  _3
REMARK    2  A    between atoms: _14  and  _17
REMARK    3  A    between atoms: _17  and  _18
REMARK    4  A    between atoms: _25  and  _26
REMARK    5  A    between atoms: _33  and  _34
REMARK    6  A    between atoms: _39  and  _41
REMARK    7  A    between atoms: _41  and  _42
REMARK    8  A    between atoms: _44  and  _46
REMARK    9  A    between atoms: _46  and  _47
REMARK   10  A    between atoms: _46  and  _49
REMARK   11  A    between atoms: _49  and  _50
REMARK   12  A    between atoms: _60  and  _62
REMARK   13  A    between atoms: _62  and  _63
REMARK   14  A    between atoms: _62  and  _65
REMARK   15  A    between atoms: _65  and  _66
REMARK   16  A    between atoms: _69  and  _71
REMARK   17  A    between atoms: _71  and  _72
REMARK   18  A    between atoms: _71  and  _74
REMARK   19  A    between atoms: _74  and  _75
REMARK   20  A    between atoms: _80  and  _81
REMARK   21  A    between atoms: _83  and  _85
REMARK   22  A    between atoms: _85  and  _86
REMARK   23  A    between atoms: _85  and  _88
REMARK   24  A    between atoms: _88  and  _89
REMARK   25  A    between atoms: _89  and  _90
REMARK   26  A    between atoms: _93  and  _95
REMARK   27  A    between atoms: _95  and  _96
REMARK   28  A    between atoms: _95  and  _98
REMARK   29  A    between atoms: _98  and  _99
REMARK   30  A    between atoms: _99  and  _100
REMARK   31  A    between atoms: _102  and  _104
REMARK   32  A    between atoms: _104  and  _105
REMARK   33  A    between atoms: _104  and  _107
REMARK   34  A    between atoms: _107  and  _108
REMARK   35  A    between atoms: _111  and  _113
REMARK   36  A    between atoms: _113  and  _114
REMARK   37  A    between atoms: _113  and  _116
REMARK   38  A    between atoms: _116  and  _117
REMARK   39  A    between atoms: _117  and  _119
REMARK   40  A    between atoms: _119  and  ZN_385
REMARK   41  A    between atoms: _121  and  _122
REMARK   42  A    between atoms: _127  and  _129
REMARK   43  A    between atoms: _129  and  _130
REMARK   44  A    between atoms: _129  and  _132
REMARK   45  A    between atoms: _132  and  _133
REMARK   46  A    between atoms: _139  and  _141
REMARK   47  A    between atoms: _141  and  _142
REMARK   48  A    between atoms: _141  and  _144
REMARK   49  A    between atoms: _144  and  _145
REMARK   50  A    between atoms: _145  and  _146
REMARK   51  A    between atoms: _146  and  _147
REMARK   52  A    between atoms: _156  and  _158
REMARK   53  A    between atoms: _158  and  _159
REMARK   54  A    between atoms: _158  and  _161
REMARK   55  A    between atoms: _161  and  _162
REMARK   56  A    between atoms: _167  and  _168
REMARK   57  A    between atoms: _170  and  _172
REMARK   58  A    between atoms: _172  and  _173
REMARK   59  A    between atoms: _172  and  _175
REMARK   60  A    between atoms: _175  and  _176
REMARK   61  A    between atoms: _178  and  _180
REMARK   62  A    between atoms: _180  and  _181
REMARK   63  A    between atoms: _180  and  _183
REMARK   64  A    between atoms: _183  and  _184
REMARK   65  A    between atoms: _189  and  _190
REMARK   66  A    between atoms: _192  and  _194
REMARK   67  A    between atoms: _194  and  _195
REMARK   68  A    between atoms: _194  and  _197
REMARK   69  A    between atoms: _197  and  _198
REMARK   70  A    between atoms: _201  and  _203
REMARK   71  A    between atoms: _203  and  _204
REMARK   72  A    between atoms: _203  and  _206
REMARK   73  A    between atoms: _206  and  _207
REMARK   74  A    between atoms: _210  and  _212
REMARK   75  A    between atoms: _212  and  _213
REMARK   76  A    between atoms: _212  and  _215
REMARK   77  A    between atoms: _215  and  _216
REMARK   78  A    between atoms: _222  and  _224
REMARK   79  A    between atoms: _224  and  _225
REMARK   80  A    between atoms: _224  and  _227
REMARK   81  A    between atoms: _227  and  _228
REMARK   82  A    between atoms: _233  and  _234
REMARK   83  A    between atoms: _236  and  _238
REMARK   84  A    between atoms: _238  and  _239
REMARK   85  A    between atoms: _238  and  _241
REMARK   86  A    between atoms: _241  and  _242
REMARK   87  A    between atoms: _245  and  _247
REMARK   88  A    between atoms: _247  and  _248
REMARK   89  A    between atoms: _247  and  _250
REMARK   90  A    between atoms: _250  and  _251
REMARK   91  A    between atoms: _261  and  _263
REMARK   92  A    between atoms: _263  and  _264
REMARK   93  A    between atoms: _263  and  _266
REMARK   94  A    between atoms: _266  and  _267
REMARK   95  A    between atoms: _272  and  _274
REMARK   96  A    between atoms: _274  and  _275
REMARK   97  A    between atoms: _274  and  _277
REMARK   98  A    between atoms: _277  and  _278
REMARK   99  A    between atoms: _282  and  ZN_385
REMARK  100  A    between atoms: _283  and  _285
REMARK  101  A    between atoms: _285  and  _286
REMARK  102  A    between atoms: _285  and  _288
REMARK  103  A    between atoms: _288  and  _289
REMARK  104  A    between atoms: _292  and  _294
REMARK  105  A    between atoms: _294  and  _295
REMARK  106  A    between atoms: _297  and  _299
REMARK  107  A    between atoms: _299  and  _300
REMARK  108  A    between atoms: _299  and  _302
REMARK  109  A    between atoms: _302  and  _303
REMARK  110  A    between atoms: _306  and  _308
REMARK  111  A    between atoms: _308  and  _309
REMARK  112  A    between atoms: _308  and  _311
REMARK  113  A    between atoms: _311  and  _312
REMARK  114  A    between atoms: _315  and  _317
REMARK  115  A    between atoms: _317  and  _318
REMARK  116  A    between atoms: _321  and  _323
REMARK  117  A    between atoms: _323  and  _324
REMARK  118  A    between atoms: _323  and  _326
REMARK  119  A    between atoms: _326  and  _327
REMARK  120  A    between atoms: _332  and  _333
REMARK  121  A    between atoms: _335  and  _337
REMARK  122  A    between atoms: _337  and  _338
REMARK  123  A    between atoms: _337  and  _340
REMARK  124  A    between atoms: _340  and  _341
REMARK  125  A    between atoms: _344  and  _346
REMARK  126  A    between atoms: _346  and  _347
REMARK  127  A    between atoms: _346  and  _349
REMARK  128  A    between atoms: _349  and  _350
REMARK  129  A    between atoms: _350  and  _351
REMARK  130  A    between atoms: _354  and  _356
REMARK  131  A    between atoms: _356  and  _357
REMARK  132  A    between atoms: _356  and  _359
REMARK  133  A    between atoms: _359  and  _360
REMARK  134  A    between atoms: _360  and  _361
REMARK  135  A    between atoms: _361  and  _362
REMARK  136  A    between atoms: _371  and  _373
REMARK  137  A    between atoms: _373  and  _374
REMARK  138  A    between atoms: _376  and  _378
REMARK  139  A    between atoms: _378  and  _379
REMARK  140  A    between atoms: _378  and  _381
REMARK  141  A    between atoms: _381  and  _382
REMARK                            x       y       z     vdW  Elec       q    Type
REMARK                         _______ _______ _______ _____ _____    ______ ____
ROOT
ATOM      1  CA  ASP A   1      20.770  60.328   4.477  0.00  0.00    +0.144 C 
ENDROOT
BRANCH   1   2
ATOM      2  N   ASP A   1      20.813  60.723   3.064  0.00  0.00    -0.239 NA
ATOM      3  H   ASP A   1      20.888  61.727   2.802  0.00  0.00    +0.142 HD
ENDBRANCH   1   2
BRANCH   1   4
ATOM      4  C   ASP A   1      19.352  60.372   5.001  0.00  0.00    +0.225 C 
ATOM      5  O   ASP A   1      19.045  59.663   5.958  0.00  0.00    -0.287 OA
ENDBRANCH   1   4
BRANCH   1   6
ATOM      6  CB  ASP A   1      21.689  61.184   5.353  0.00  0.00    +0.139 C 
BRANCH   6   7
ATOM      7  CG  ASP A   1      21.433  62.712   5.232  0.00  0.00    +0.367 C 
ATOM      8  OD2 ASP A   1      21.904  63.424   6.151  0.00  0.00    -0.246 OA
ATOM      9  OD1 ASP A   1      20.769  63.203   4.253  0.00  0.00    -0.246 OA
ENDBRANCH   6   7
ENDBRANCH   1   6
TORSDOF 4
REMARK  Name = ../refined-set-2016/3d4y/3d4y_pocket.pdb
REMARK  141 active torsions:
REMARK  status: ('A' for Active; 'I' for Inactive)
REMARK    1  A    between atoms: _1  and  _3
REMARK    2  A    between atoms: _14  and  _17
REMARK    3  A    between atoms: _17  and  _18
REMARK    4  A    between atoms: _25  and  _26
REMARK    5  A    between atoms: _33  and  _34
REMARK    6  A    between atoms: _39  and  _41
REMARK    7  A    between atoms: _41  and  _42
REMARK    8  A    between atoms: _44  and  _46
REMARK    9  A    between atoms: _46  and  _47
REMARK   10  A    between atoms: _46  and  _49
REMARK   11  A    between atoms: _49  and  _50
REMARK   12  A    between atoms: _60  and  _62
REMARK   13  A    between atoms: _62  and  _63
REMARK   14  A    between atoms: _62  and  _65
REMARK   15  A    between atoms: _65  and  _66
REMARK   16  A    between atoms: _69  and  _71
REMARK   17  A    between atoms: _71  and  _72
REMARK   18  A    between atoms: _71  and  _74
REMARK   19  A    between atoms: _74  and  _75
REMARK   20  A    between atoms: _80  and  _81
REMARK   21  A    between atoms: _83  and  _85
REMARK   22  A    between atoms: _85  and  _86
REMARK   23  A    between atoms: _85  and  _88
REMARK   24  A    between atoms: _88  and  _89
REMARK   25  A    between atoms: _89  and  _90
REMARK   26  A    between atoms: _93  and  _95
REMARK   27  A    between atoms: _95  and  _96
REMARK   28  A    between atoms: _95  and  _98
REMARK   29  A    between atoms: _98  and  _99
REMARK   30  A    between atoms: _99  and  _100
REMARK   31  A    between atoms: _102  and  _104
REMARK   32  A    between atoms: _104  and  _105
REMARK   33  A    between atoms: _104  and  _107
REMARK   34  A    between atoms: _107  and  _108
REMARK   35  A    between atoms: _111  and  _113
REMARK   36  A    between atoms: _113  and  _114
REMARK   37  A    between atoms: _113  and  _116
REMARK   38  A    between atoms: _116  and  _117
REMARK   39  A    between atoms: _117  and  _119
REMARK   40  A    between atoms: _119  and  ZN_385
REMARK   41  A    between atoms: _121  and  _122
REMARK   42  A    between atoms: _127  and  _129
REMARK   43  A    between atoms: _129  and  _130
REMARK   44  A    between atoms: _129  and  _132
REMARK   45  A    between atoms: _132  and  _133
REMARK   46  A    between atoms: _139  and  _141
REMARK   47  A    between atoms: _141  and  _142
REMARK   48  A    between atoms: _141  and  _144
REMARK   49  A    between atoms: _144  and  _145
REMARK   50  A    between atoms: _145  and  _146
REMARK   51  A    between atoms: _146  and  _147
REMARK   52  A    between atoms: _156  and  _158
REMARK   53  A    between atoms: _158  and  _159
REMARK   54  A    between atoms: _158  and  _161
REMARK   55  A    between atoms: _161  and  _162
REMARK   56  A    between atoms: _167  and  _168
REMARK   57  A    between atoms: _170  and  _172
REMARK   58  A    between atoms: _172  and  _173
REMARK   59  A    between atoms: _172  and  _175
REMARK   60  A    between atoms: _175  and  _176
REMARK   61  A    between atoms: _178  and  _180
REMARK   62  A    between atoms: _180  and  _181
REMARK   63  A    between atoms: _180  and  _183
REMARK   64  A    between atoms: _183  and  _184
REMARK   65  A    between atoms: _189  and  _190
REMARK   66  A    between atoms: _192  and  _194
REMARK   67  A    between atoms: _194  and  _195
REMARK   68  A    between atoms: _194  and  _197
REMARK   69  A    between atoms: _197  and  _198
REMARK   70  A    between atoms: _201  and  _203
REMARK   71  A    between atoms: _203  and  _204
REMARK   72  A    between atoms: _203  and  _206
REMARK   73  A    between atoms: _206  and  _207
REMARK   74  A    between atoms: _210  and  _212
REMARK   75  A    between atoms: _212  and  _213
REMARK   76  A    between atoms: _212  and  _215
REMARK   77  A    between atoms: _215  and  _216
REMARK   78  A    between atoms: _222  and  _224
REMARK   79  A    between atoms: _224  and  _225
REMARK   80  A    between atoms: _224  and  _227
REMARK   81  A    between atoms: _227  and  _228
REMARK   82  A    between atoms: _233  and  _234
REMARK   83  A    between atoms: _236  and  _238
REMARK   84  A    between atoms: _238  and  _239
REMARK   85  A    between atoms: _238  and  _241
REMARK   86  A    between atoms: _241  and  _242
REMARK   87  A    between atoms: _245  and  _247
REMARK   88  A    between atoms: _247  and  _248
REMARK   89  A    between atoms: _247  and  _250
REMARK   90  A    between atoms: _250  and  _251
REMARK   91  A    between atoms: _261  and  _263
REMARK   92  A    between atoms: _263  and  _264
REMARK   93  A    between atoms: _263  and  _266
REMARK   94  A    between atoms: _266  and  _267
REMARK   95  A    between atoms: _272  and  _274
REMARK   96  A    between atoms: _274  and  _275
REMARK   97  A    between atoms: _274  and  _277
REMARK   98  A    between atoms: _277  and  _278
REMARK   99  A    between atoms: _282  and  ZN_385
REMARK  100  A    between atoms: _283  and  _285
REMARK  101  A    between atoms: _285  and  _286
REMARK  102  A    between atoms: _285  and  _288
REMARK  103  A    between atoms: _288  and  _289
REMARK  104  A    between atoms: _292  and  _294
REMARK  105  A    between atoms: _294  and  _295
REMARK  106  A    between atoms: _297  and  _299
REMARK  107  A    between atoms: _299  and  _300
REMARK  108  A    between atoms: _299  and  _302
REMARK  109  A    between atoms: _302  and  _303
REMARK  110  A    between atoms: _306  and  _308
REMARK  111  A    between atoms: _308  and  _309
REMARK  112  A    between atoms: _308  and  _311
REMARK  113  A    between atoms: _311  and  _312
REMARK  114  A    between atoms: _315  and  _317
REMARK  115  A    between atoms: _317  and  _318
REMARK  116  A    between atoms: _321  and  _323
REMARK  117  A    between atoms: _323  and  _324
REMARK  118  A    between atoms: _323  and  _326
REMARK  119  A    between atoms: _326  and  _327
REMARK  120  A    between atoms: _332  and  _333
REMARK  121  A    between atoms: _335  and  _337
REMARK  122  A    between atoms: _337  and  _338
REMARK  123  A    between atoms: _337  and  _340
REMARK  124  A    between atoms: _340  and  _341
REMARK  125  A    between atoms: _344  and  _346
REMARK  126  A    between atoms: _346  and  _347
REMARK  127  A    between atoms: _346  and  _349
REMARK  128  A    between atoms: _349  and  _350
REMARK  129  A    between atoms: _350  and  _351
REMARK  130  A    between atoms: _354  and  _356
REMARK  131  A    between atoms: _356  and  _357
REMARK  132  A    between atoms: _356  and  _359
REMARK  133  A    between atoms: _359  and  _360
REMARK  134  A    between atoms: _360  and  _361
REMARK  135  A    between atoms: _361  and  _362
REMARK  136  A    between atoms: _371  and  _373
REMARK  137  A    between atoms: _373  and  _374
REMARK  138  A    between atoms: _376  and  _378
REMARK  139  A    between atoms: _378  and  _379
REMARK  140  A    between atoms: _378  and  _381
REMARK  141  A    between atoms: _381  and  _382
REMARK                            x       y       z     vdW  Elec       q    Type
REMARK                         _______ _______ _______ _____ _____    ______ ____
ROOT
ATOM      1  CG  TRP A   1      24.593  63.891   0.898  0.00  0.00    -0.002 A 
ATOM      2  CD2 TRP A   1      25.338  64.107   2.082  0.00  0.00    +0.013 A 
ATOM      3  CE2 TRP A   1      24.434  64.040   3.167  0.00  0.00    +0.056 A 
ATOM      4  CZ2 TRP A   1      24.847  64.202   4.490  0.00  0.00    +0.017 A 
ATOM      5  CH2 TRP A   1      26.201  64.423   4.715  0.00  0.00    +0.001 A 
ATOM      6  CZ3 TRP A   1      27.131  64.487   3.646  0.00  0.00    +0.000 A 
ATOM      7  NE1 TRP A   1      23.181  63.786   2.630  0.00  0.00    -0.352 N 
ATOM      8  HE1 TRP A   1      22.306  63.662   3.179  0.00  0.00    +0.166 HD
ATOM      9  CE3 TRP A   1      26.715  64.360   2.331  0.00  0.00    +0.001 A 
ATOM     10  CD1 TRP A   1      23.273  63.724   1.281  0.00  0.00    +0.068 A 
ENDROOT
BRANCH   1  11
ATOM     11  CB  TRP A   1      25.166  63.856  -0.482  0.00  0.00    +0.053 C 
BRANCH  11  12
ATOM     12  CA  TRP A   1      24.312  64.560  -1.527  0.00  0.00    +0.137 C 
BRANCH  12  13
ATOM     13  N   TRP A   1      23.070  63.823  -1.670  0.00  0.00    -0.239 NA
ATOM     14  H   TRP A   1      23.058  62.789  -1.556  0.00  0.00    +0.142 HD
ENDBRANCH  12  13
BRANCH  12  15
ATOM     15  C   TRP A   1      25.039  64.582  -2.849  0.00  0.00    +0.224 C 
ATOM     16  O   TRP A   1      26.155  64.044  -2.986  0.00  0.00    -0.287 OA
ENDBRANCH  12  15
ENDBRANCH  11  12
ENDBRANCH   1  11
TORSDOF 4
REMARK  Name = ../refined-set-2016/3d4y/3d4y_pocket.pdb
REMARK  141 active torsions:
REMARK  status: ('A' for Active; 'I' for Inactive)
REMARK    1  A    between atoms: _1  and  _3
REMARK    2  A    between atoms: _14  and  _17
REMARK    3  A    between atoms: _17  and  _18
REMARK    4  A    between atoms: _25  and  _26
REMARK    5  A    between atoms: _33  and  _34
REMARK    6  A    between atoms: _39  and  _41
REMARK    7  A    between atoms: _41  and  _42
REMARK    8  A    between atoms: _44  and  _46
REMARK    9  A    between atoms: _46  and  _47
REMARK   10  A    between atoms: _46  and  _49
REMARK   11  A    between atoms: _49  and  _50
REMARK   12  A    between atoms: _60  and  _62
REMARK   13  A    between atoms: _62  and  _63
REMARK   14  A    between atoms: _62  and  _65
REMARK   15  A    between atoms: _65  and  _66
REMARK   16  A    between atoms: _69  and  _71
REMARK   17  A    between atoms: _71  and  _72
REMARK   18  A    between atoms: _71  and  _74
REMARK   19  A    between atoms: _74  and  _75
REMARK   20  A    between atoms: _80  and  _81
REMARK   21  A    between atoms: _83  and  _85
REMARK   22  A    between atoms: _85  and  _86
REMARK   23  A    between atoms: _85  and  _88
REMARK   24  A    between atoms: _88  and  _89
REMARK   25  A    between atoms: _89  and  _90
REMARK   26  A    between atoms: _93  and  _95
REMARK   27  A    between atoms: _95  and  _96
REMARK   28  A    between atoms: _95  and  _98
REMARK   29  A    between atoms: _98  and  _99
REMARK   30  A    between atoms: _99  and  _100
REMARK   31  A    between atoms: _102  and  _104
REMARK   32  A    between atoms: _104  and  _105
REMARK   33  A    between atoms: _104  and  _107
REMARK   34  A    between atoms: _107  and  _108
REMARK   35  A    between atoms: _111  and  _113
REMARK   36  A    between atoms: _113  and  _114
REMARK   37  A    between atoms: _113  and  _116
REMARK   38  A    between atoms: _116  and  _117
REMARK   39  A    between atoms: _117  and  _119
REMARK   40  A    between atoms: _119  and  ZN_385
REMARK   41  A    between atoms: _121  and  _122
REMARK   42  A    between atoms: _127  and  _129
REMARK   43  A    between atoms: _129  and  _130
REMARK   44  A    between atoms: _129  and  _132
REMARK   45  A    between atoms: _132  and  _133
REMARK   46  A    between atoms: _139  and  _141
REMARK   47  A    between atoms: _141  and  _142
REMARK   48  A    between atoms: _141  and  _144
REMARK   49  A    between atoms: _144  and  _145
REMARK   50  A    between atoms: _145  and  _146
REMARK   51  A    between atoms: _146  and  _147
REMARK   52  A    between atoms: _156  and  _158
REMARK   53  A    between atoms: _158  and  _159
REMARK   54  A    between atoms: _158  and  _161
REMARK   55  A    between atoms: _161  and  _162
REMARK   56  A    between atoms: _167  and  _168
REMARK   57  A    between atoms: _170  and  _172
REMARK   58  A    between atoms: _172  and  _173
REMARK   59  A    between atoms: _172  and  _175
REMARK   60  A    between atoms: _175  and  _176
REMARK   61  A    between atoms: _178  and  _180
REMARK   62  A    between atoms: _180  and  _181
REMARK   63  A    between atoms: _180  and  _183
REMARK   64  A    between atoms: _183  and  _184
REMARK   65  A    between atoms: _189  and  _190
REMARK   66  A    between atoms: _192  and  _194
REMARK   67  A    between atoms: _194  and  _195
REMARK   68  A    between atoms: _194  and  _197
REMARK   69  A    between atoms: _197  and  _198
REMARK   70  A    between atoms: _201  and  _203
REMARK   71  A    between atoms: _203  and  _204
REMARK   72  A    between atoms: _203  and  _206
REMARK   73  A    between atoms: _206  and  _207
REMARK   74  A    between atoms: _210  and  _212
REMARK   75  A    between atoms: _212  and  _213
REMARK   76  A    between atoms: _212  and  _215
REMARK   77  A    between atoms: _215  and  _216
REMARK   78  A    between atoms: _222  and  _224
REMARK   79  A    between atoms: _224  and  _225
REMARK   80  A    between atoms: _224  and  _227
REMARK   81  A    between atoms: _227  and  _228
REMARK   82  A    between atoms: _233  and  _234
REMARK   83  A    between atoms: _236  and  _238
REMARK   84  A    between atoms: _238  and  _239
REMARK   85  A    between atoms: _238  and  _241
REMARK   86  A    between atoms: _241  and  _242
REMARK   87  A    between atoms: _245  and  _247
REMARK   88  A    between atoms: _247  and  _248
REMARK   89  A    between atoms: _247  and  _250
REMARK   90  A    between atoms: _250  and  _251
REMARK   91  A    between atoms: _261  and  _263
REMARK   92  A    between atoms: _263  and  _264
REMARK   93  A    between atoms: _263  and  _266
REMARK   94  A    between atoms: _266  and  _267
REMARK   95  A    between atoms: _272  and  _274
REMARK   96  A    between atoms: _274  and  _275
REMARK   97  A    between atoms: _274  and  _277
REMARK   98  A    between atoms: _277  and  _278
REMARK   99  A    between atoms: _282  and  ZN_385
REMARK  100  A    between atoms: _283  and  _285
REMARK  101  A    between atoms: _285  and  _286
REMARK  102  A    between atoms: _285  and  _288
REMARK  103  A    between atoms: _288  and  _289
REMARK  104  A    between atoms: _292  and  _294
REMARK  105  A    between atoms: _294  and  _295
REMARK  106  A    between atoms: _297  and  _299
REMARK  107  A    between atoms: _299  and  _300
REMARK  108  A    between atoms: _299  and  _302
REMARK  109  A    between atoms: _302  and  _303
REMARK  110  A    between atoms: _306  and  _308
REMARK  111  A    between atoms: _308  and  _309
REMARK  112  A    between atoms: _308  and  _311
REMARK  113  A    between atoms: _311  and  _312
REMARK  114  A    between atoms: _315  and  _317
REMARK  115  A    between atoms: _317  and  _318
REMARK  116  A    between atoms: _321  and  _323
REMARK  117  A    between atoms: _323  and  _324
REMARK  118  A    between atoms: _323  and  _326
REMARK  119  A    between atoms: _326  and  _327
REMARK  120  A    between atoms: _332  and  _333
REMARK  121  A    between atoms: _335  and  _337
REMARK  122  A    between atoms: _337  and  _338
REMARK  123  A    between atoms: _337  and  _340
REMARK  124  A    between atoms: _340  and  _341
REMARK  125  A    between atoms: _344  and  _346
REMARK  126  A    between atoms: _346  and  _347
REMARK  127  A    between atoms: _346  and  _349
REMARK  128  A    between atoms: _349  and  _350
REMARK  129  A    between atoms: _350  and  _351
REMARK  130  A    between atoms: _354  and  _356
REMARK  131  A    between atoms: _356  and  _357
REMARK  132  A    between atoms: _356  and  _359
REMARK  133  A    between atoms: _359  and  _360
REMARK  134  A    between atoms: _360  and  _361
REMARK  135  A    between atoms: _361  and  _362
REMARK  136  A    between atoms: _371  and  _373
REMARK  137  A    between atoms: _373  and  _374
REMARK  138  A    between atoms: _376  and  _378
REMARK  139  A    between atoms: _378  and  _379
REMARK  140  A    between atoms: _378  and  _381
REMARK  141  A    between atoms: _381  and  _382
REMARK                            x       y       z     vdW  Elec       q    Type
REMARK                         _______ _______ _______ _____ _____    ______ ____
ROOT
ATOM      1  CA  THR A   1      34.581  67.628  -1.858  0.00  0.00    +0.160 C 
ENDROOT
BRANCH   1   2
ATOM      2  N   THR A   1      36.043  67.594  -1.777  0.00  0.00    -0.237 NA
ATOM      3  H   THR A   1      36.499  67.233  -0.915  0.00  0.00    +0.142 HD
ENDBRANCH   1   2
BRANCH   1   4
ATOM      4  CB  THR A   1      34.018  66.902  -0.652  0.00  0.00    +0.134 C 
ATOM      5  CG2 THR A   1      34.395  65.492  -0.649  0.00  0.00    +0.034 C 
BRANCH   4   6
ATOM      6  OG1 THR A   1      34.520  67.563   0.499  0.00  0.00    -0.383 OA
ATOM      7  HG1 THR A   1      34.174  67.117   1.312  0.00  0.00    +0.210 HD
ENDBRANCH   4   6
ENDBRANCH   1   4
BRANCH   1   8
ATOM      8  C   THR A   1      34.019  69.063  -1.811  0.00  0.00    +0.227 C 
ATOM      9  O   THR A   1      32.838  69.292  -2.142  0.00  0.00    -0.287 OA
ENDBRANCH   1   8
TORSDOF 4
REMARK  Name = ../refined-set-2016/3d4y/3d4y_pocket.pdb
REMARK  141 active torsions:
REMARK  status: ('A' for Active; 'I' for Inactive)
REMARK    1  A    between atoms: _1  and  _3
REMARK    2  A    between atoms: _14  and  _17
REMARK    3  A    between atoms: _17  and  _18
REMARK    4  A    between atoms: _25  and  _26
REMARK    5  A    between atoms: _33  and  _34
REMARK    6  A    between atoms: _39  and  _41
REMARK    7  A    between atoms: _41  and  _42
REMARK    8  A    between atoms: _44  and  _46
REMARK    9  A    between atoms: _46  and  _47
REMARK   10  A    between atoms: _46  and  _49
REMARK   11  A    between atoms: _49  and  _50
REMARK   12  A    between atoms: _60  and  _62
REMARK   13  A    between atoms: _62  and  _63
REMARK   14  A    between atoms: _62  and  _65
REMARK   15  A    between atoms: _65  and  _66
REMARK   16  A    between atoms: _69  and  _71
REMARK   17  A    between atoms: _71  and  _72
REMARK   18  A    between atoms: _71  and  _74
REMARK   19  A    between atoms: _74  and  _75
REMARK   20  A    between atoms: _80  and  _81
REMARK   21  A    between atoms: _83  and  _85
REMARK   22  A    between atoms: _85  and  _86
REMARK   23  A    between atoms: _85  and  _88
REMARK   24  A    between atoms: _88  and  _89
REMARK   25  A    between atoms: _89  and  _90
REMARK   26  A    between atoms: _93  and  _95
REMARK   27  A    between atoms: _95  and  _96
REMARK   28  A    between atoms: _95  and  _98
REMARK   29  A    between atoms: _98  and  _99
REMARK   30  A    between atoms: _99  and  _100
REMARK   31  A    between atoms: _102  and  _104
REMARK   32  A    between atoms: _104  and  _105
REMARK   33  A    between atoms: _104  and  _107
REMARK   34  A    between atoms: _107  and  _108
REMARK   35  A    between atoms: _111  and  _113
REMARK   36  A    between atoms: _113  and  _114
REMARK   37  A    between atoms: _113  and  _116
REMARK   38  A    between atoms: _116  and  _117
REMARK   39  A    between atoms: _117  and  _119
REMARK   40  A    between atoms: _119  and  ZN_385
REMARK   41  A    between atoms: _121  and  _122
REMARK   42  A    between atoms: _127  and  _129
REMARK   43  A    between atoms: _129  and  _130
REMARK   44  A    between atoms: _129  and  _132
REMARK   45  A    between atoms: _132  and  _133
REMARK   46  A    between atoms: _139  and  _141
REMARK   47  A    between atoms: _141  and  _142
REMARK   48  A    between atoms: _141  and  _144
REMARK   49  A    between atoms: _144  and  _145
REMARK   50  A    between atoms: _145  and  _146
REMARK   51  A    between atoms: _146  and  _147
REMARK   52  A    between atoms: _156  and  _158
REMARK   53  A    between atoms: _158  and  _159
REMARK   54  A    between atoms: _158  and  _161
REMARK   55  A    between atoms: _161  and  _162
REMARK   56  A    between atoms: _167  and  _168
REMARK   57  A    between atoms: _170  and  _172
REMARK   58  A    between atoms: _172  and  _173
REMARK   59  A    between atoms: _172  and  _175
REMARK   60  A    between atoms: _175  and  _176
REMARK   61  A    between atoms: _178  and  _180
REMARK   62  A    between atoms: _180  and  _181
REMARK   63  A    between atoms: _180  and  _183
REMARK   64  A    between atoms: _183  and  _184
REMARK   65  A    between atoms: _189  and  _190
REMARK   66  A    between atoms: _192  and  _194
REMARK   67  A    between atoms: _194  and  _195
REMARK   68  A    between atoms: _194  and  _197
REMARK   69  A    between atoms: _197  and  _198
REMARK   70  A    between atoms: _201  and  _203
REMARK   71  A    between atoms: _203  and  _204
REMARK   72  A    between atoms: _203  and  _206
REMARK   73  A    between atoms: _206  and  _207
REMARK   74  A    between atoms: _210  and  _212
REMARK   75  A    between atoms: _212  and  _213
REMARK   76  A    between atoms: _212  and  _215
REMARK   77  A    between atoms: _215  and  _216
REMARK   78  A    between atoms: _222  and  _224
REMARK   79  A    between atoms: _224  and  _225
REMARK   80  A    between atoms: _224  and  _227
REMARK   81  A    between atoms: _227  and  _228
REMARK   82  A    between atoms: _233  and  _234
REMARK   83  A    between atoms: _236  and  _238
REMARK   84  A    between atoms: _238  and  _239
REMARK   85  A    between atoms: _238  and  _241
REMARK   86  A    between atoms: _241  and  _242
REMARK   87  A    between atoms: _245  and  _247
REMARK   88  A    between atoms: _247  and  _248
REMARK   89  A    between atoms: _247  and  _250
REMARK   90  A    between atoms: _250  and  _251
REMARK   91  A    between atoms: _261  and  _263
REMARK   92  A    between atoms: _263  and  _264
REMARK   93  A    between atoms: _263  and  _266
REMARK   94  A    between atoms: _266  and  _267
REMARK   95  A    between atoms: _272  and  _274
REMARK   96  A    between atoms: _274  and  _275
REMARK   97  A    between atoms: _274  and  _277
REMARK   98  A    between atoms: _277  and  _278
REMARK   99  A    between atoms: _282  and  ZN_385
REMARK  100  A    between atoms: _283  and  _285
REMARK  101  A    between atoms: _285  and  _286
REMARK  102  A    between atoms: _285  and  _288
REMARK  103  A    between atoms: _288  and  _289
REMARK  104  A    between atoms: _292  and  _294
REMARK  105  A    between atoms: _294  and  _295
REMARK  106  A    between atoms: _297  and  _299
REMARK  107  A    between atoms: _299  and  _300
REMARK  108  A    between atoms: _299  and  _302
REMARK  109  A    between atoms: _302  and  _303
REMARK  110  A    between atoms: _306  and  _308
REMARK  111  A    between atoms: _308  and  _309
REMARK  112  A    between atoms: _308  and  _311
REMARK  113  A    between atoms: _311  and  _312
REMARK  114  A    between atoms: _315  and  _317
REMARK  115  A    between atoms: _317  and  _318
REMARK  116  A    between atoms: _321  and  _323
REMARK  117  A    between atoms: _323  and  _324
REMARK  118  A    between atoms: _323  and  _326
REMARK  119  A    between atoms: _326  and  _327
REMARK  120  A    between atoms: _332  and  _333
REMARK  121  A    between atoms: _335  and  _337
REMARK  122  A    between atoms: _337  and  _338
REMARK  123  A    between atoms: _337  and  _340
REMARK  124  A    between atoms: _340  and  _341
REMARK  125  A    between atoms: _344  and  _346
REMARK  126  A    between atoms: _346  and  _347
REMARK  127  A    between atoms: _346  and  _349
REMARK  128  A    between atoms: _349  and  _350
REMARK  129  A    between atoms: _350  and  _351
REMARK  130  A    between atoms: _354  and  _356
REMARK  131  A    between atoms: _356  and  _357
REMARK  132  A    between atoms: _356  and  _359
REMARK  133  A    between atoms: _359  and  _360
REMARK  134  A    between atoms: _360  and  _361
REMARK  135  A    between atoms: _361  and  _362
REMARK  136  A    between atoms: _371  and  _373
REMARK  137  A    between atoms: _373  and  _374
REMARK  138  A    between atoms: _376  and  _378
REMARK  139  A    between atoms: _378  and  _379
REMARK  140  A    between atoms: _378  and  _381
REMARK  141  A    between atoms: _381  and  _382
REMARK                            x       y       z     vdW  Elec       q    Type
REMARK                         _______ _______ _______ _____ _____    ______ ____
ROOT
ATOM      1  C   THR A   1      33.198  71.540   3.295  0.00  0.00    +0.241 C 
ATOM      2  O   THR A   1      32.671  71.327   4.388  0.00  0.00    -0.274 OA
ATOM      3  N   ALA A   2      34.290  72.290   3.169  0.00  0.00    -0.298 N 
ATOM      4  H   ALA A   2      34.704  72.451   2.229  0.00  0.00    +0.150 HD
ENDROOT
BRANCH   3   5
ATOM      5  CA  ALA A   2      34.917  72.896   4.369  0.00  0.00    +0.137 C 
ATOM      6  CB  ALA A   2      36.447  72.703   4.340  0.00  0.00    +0.030 C 
BRANCH   5   7
ATOM      7  C   ALA A   2      34.588  74.414   4.481  0.00  0.00    +0.227 C 
ATOM      8  O   ALA A   2      34.099  75.051   3.496  0.00  0.00    -0.286 OA
ENDBRANCH   5   7
ENDBRANCH   3   5
BRANCH   1   9
ATOM      9  CA  THR A   1      32.532  70.952   2.023  0.00  0.00    +0.172 C 
BRANCH   9  10
ATOM     10  N   THR A   1      33.457  70.804   0.900  0.00  0.00    -0.236 NA
ATOM     11  H   THR A   1      34.173  70.050   0.907  0.00  0.00    +0.142 HD
ENDBRANCH   9  10
BRANCH   9  12
ATOM     12  CB  THR A   1      31.883  69.585   2.358  0.00  0.00    +0.135 C 
ATOM     13  CG2 THR A   1      31.063  69.140   1.111  0.00  0.00    +0.034 C 
BRANCH  12  14
ATOM     14  OG1 THR A   1      32.925  68.640   2.626  0.00  0.00    -0.383 OA
ATOM     15  HG1 THR A   1      33.503  68.553   1.827  0.00  0.00    +0.210 HD
ENDBRANCH  12  14
ENDBRANCH   9  12
ENDBRANCH   1   9
TORSDOF 6
REMARK  Name = ../refined-set-2016/3d4y/3d4y_pocket.pdb
REMARK  141 active torsions:
REMARK  status: ('A' for Active; 'I' for Inactive)
REMARK    1  A    between atoms: _1  and  _3
REMARK    2  A    between atoms: _14  and  _17
REMARK    3  A    between atoms: _17  and  _18
REMARK    4  A    between atoms: _25  and  _26
REMARK    5  A    between atoms: _33  and  _34
REMARK    6  A    between atoms: _39  and  _41
REMARK    7  A    between atoms: _41  and  _42
REMARK    8  A    between atoms: _44  and  _46
REMARK    9  A    between atoms: _46  and  _47
REMARK   10  A    between atoms: _46  and  _49
REMARK   11  A    between atoms: _49  and  _50
REMARK   12  A    between atoms: _60  and  _62
REMARK   13  A    between atoms: _62  and  _63
REMARK   14  A    between atoms: _62  and  _65
REMARK   15  A    between atoms: _65  and  _66
REMARK   16  A    between atoms: _69  and  _71
REMARK   17  A    between atoms: _71  and  _72
REMARK   18  A    between atoms: _71  and  _74
REMARK   19  A    between atoms: _74  and  _75
REMARK   20  A    between atoms: _80  and  _81
REMARK   21  A    between atoms: _83  and  _85
REMARK   22  A    between atoms: _85  and  _86
REMARK   23  A    between atoms: _85  and  _88
REMARK   24  A    between atoms: _88  and  _89
REMARK   25  A    between atoms: _89  and  _90
REMARK   26  A    between atoms: _93  and  _95
REMARK   27  A    between atoms: _95  and  _96
REMARK   28  A    between atoms: _95  and  _98
REMARK   29  A    between atoms: _98  and  _99
REMARK   30  A    between atoms: _99  and  _100
REMARK   31  A    between atoms: _102  and  _104
REMARK   32  A    between atoms: _104  and  _105
REMARK   33  A    between atoms: _104  and  _107
REMARK   34  A    between atoms: _107  and  _108
REMARK   35  A    between atoms: _111  and  _113
REMARK   36  A    between atoms: _113  and  _114
REMARK   37  A    between atoms: _113  and  _116
REMARK   38  A    between atoms: _116  and  _117
REMARK   39  A    between atoms: _117  and  _119
REMARK   40  A    between atoms: _119  and  ZN_385
REMARK   41  A    between atoms: _121  and  _122
REMARK   42  A    between atoms: _127  and  _129
REMARK   43  A    between atoms: _129  and  _130
REMARK   44  A    between atoms: _129  and  _132
REMARK   45  A    between atoms: _132  and  _133
REMARK   46  A    between atoms: _139  and  _141
REMARK   47  A    between atoms: _141  and  _142
REMARK   48  A    between atoms: _141  and  _144
REMARK   49  A    between atoms: _144  and  _145
REMARK   50  A    between atoms: _145  and  _146
REMARK   51  A    between atoms: _146  and  _147
REMARK   52  A    between atoms: _156  and  _158
REMARK   53  A    between atoms: _158  and  _159
REMARK   54  A    between atoms: _158  and  _161
REMARK   55  A    between atoms: _161  and  _162
REMARK   56  A    between atoms: _167  and  _168
REMARK   57  A    between atoms: _170  and  _172
REMARK   58  A    between atoms: _172  and  _173
REMARK   59  A    between atoms: _172  and  _175
REMARK   60  A    between atoms: _175  and  _176
REMARK   61  A    between atoms: _178  and  _180
REMARK   62  A    between atoms: _180  and  _181
REMARK   63  A    between atoms: _180  and  _183
REMARK   64  A    between atoms: _183  and  _184
REMARK   65  A    between atoms: _189  and  _190
REMARK   66  A    between atoms: _192  and  _194
REMARK   67  A    between atoms: _194  and  _195
REMARK   68  A    between atoms: _194  and  _197
REMARK   69  A    between atoms: _197  and  _198
REMARK   70  A    between atoms: _201  and  _203
REMARK   71  A    between atoms: _203  and  _204
REMARK   72  A    between atoms: _203  and  _206
REMARK   73  A    between atoms: _206  and  _207
REMARK   74  A    between atoms: _210  and  _212
REMARK   75  A    between atoms: _212  and  _213
REMARK   76  A    between atoms: _212  and  _215
REMARK   77  A    between atoms: _215  and  _216
REMARK   78  A    between atoms: _222  and  _224
REMARK   79  A    between atoms: _224  and  _225
REMARK   80  A    between atoms: _224  and  _227
REMARK   81  A    between atoms: _227  and  _228
REMARK   82  A    between atoms: _233  and  _234
REMARK   83  A    between atoms: _236  and  _238
REMARK   84  A    between atoms: _238  and  _239
REMARK   85  A    between atoms: _238  and  _241
REMARK   86  A    between atoms: _241  and  _242
REMARK   87  A    between atoms: _245  and  _247
REMARK   88  A    between atoms: _247  and  _248
REMARK   89  A    between atoms: _247  and  _250
REMARK   90  A    between atoms: _250  and  _251
REMARK   91  A    between atoms: _261  and  _263
REMARK   92  A    between atoms: _263  and  _264
REMARK   93  A    between atoms: _263  and  _266
REMARK   94  A    between atoms: _266  and  _267
REMARK   95  A    between atoms: _272  and  _274
REMARK   96  A    between atoms: _274  and  _275
REMARK   97  A    between atoms: _274  and  _277
REMARK   98  A    between atoms: _277  and  _278
REMARK   99  A    between atoms: _282  and  ZN_385
REMARK  100  A    between atoms: _283  and  _285
REMARK  101  A    between atoms: _285  and  _286
REMARK  102  A    between atoms: _285  and  _288
REMARK  103  A    between atoms: _288  and  _289
REMARK  104  A    between atoms: _292  and  _294
REMARK  105  A    between atoms: _294  and  _295
REMARK  106  A    between atoms: _297  and  _299
REMARK  107  A    between atoms: _299  and  _300
REMARK  108  A    between atoms: _299  and  _302
REMARK  109  A    between atoms: _302  and  _303
REMARK  110  A    between atoms: _306  and  _308
REMARK  111  A    between atoms: _308  and  _309
REMARK  112  A    between atoms: _308  and  _311
REMARK  113  A    between atoms: _311  and  _312
REMARK  114  A    between atoms: _315  and  _317
REMARK  115  A    between atoms: _317  and  _318
REMARK  116  A    between atoms: _321  and  _323
REMARK  117  A    between atoms: _323  and  _324
REMARK  118  A    between atoms: _323  and  _326
REMARK  119  A    between atoms: _326  and  _327
REMARK  120  A    between atoms: _332  and  _333
REMARK  121  A    between atoms: _335  and  _337
REMARK  122  A    between atoms: _337  and  _338
REMARK  123  A    between atoms: _337  and  _340
REMARK  124  A    between atoms: _340  and  _341
REMARK  125  A    between atoms: _344  and  _346
REMARK  126  A    between atoms: _346  and  _347
REMARK  127  A    between atoms: _346  and  _349
REMARK  128  A    between atoms: _349  and  _350
REMARK  129  A    between atoms: _350  and  _351
REMARK  130  A    between atoms: _354  and  _356
REMARK  131  A    between atoms: _356  and  _357
REMARK  132  A    between atoms: _356  and  _359
REMARK  133  A    between atoms: _359  and  _360
REMARK  134  A    between atoms: _360  and  _361
REMARK  135  A    between atoms: _361  and  _362
REMARK  136  A    between atoms: _371  and  _373
REMARK  137  A    between atoms: _373  and  _374
REMARK  138  A    between atoms: _376  and  _378
REMARK  139  A    between atoms: _378  and  _379
REMARK  140  A    between atoms: _378  and  _381
REMARK  141  A    between atoms: _381  and  _382
REMARK                            x       y       z     vdW  Elec       q    Type
REMARK                         _______ _______ _______ _____ _____    ______ ____
ROOT
ATOM      1  CG  TYR A   1      27.317  68.536   2.733  0.00  0.00    -0.020 A 
ATOM      2  CD2 TYR A   1      27.312  69.686   3.564  0.00  0.00    -0.001 A 
ATOM      3  CE2 TYR A   1      28.307  69.881   4.576  0.00  0.00    +0.036 A 
ATOM      4  CZ  TYR A   1      29.283  68.886   4.754  0.00  0.00    +0.134 A 
ATOM      5  CE1 TYR A   1      29.323  67.751   3.939  0.00  0.00    +0.036 A 
ATOM      6  CD1 TYR A   1      28.338  67.590   2.907  0.00  0.00    -0.001 A 
ENDROOT
BRANCH   4   7
ATOM      7  OH  TYR A   1      30.202  69.076   5.740  0.00  0.00    -0.506 OA
ATOM      8  HH  TYR A   1      30.151  68.327   6.386  0.00  0.00    +0.292 HD
ENDBRANCH   4   7
BRANCH   1   9
ATOM      9  CB  TYR A   1      26.261  68.345   1.669  0.00  0.00    +0.051 C 
BRANCH   9  10
ATOM     10  CA  TYR A   1      26.610  69.001   0.320  0.00  0.00    +0.137 C 
BRANCH  10  11
ATOM     11  N   TYR A   1      26.820  70.412   0.463  0.00  0.00    -0.239 NA
ATOM     12  H   TYR A   1      26.308  70.924   1.210  0.00  0.00    +0.142 HD
ENDBRANCH  10  11
BRANCH  10  13
ATOM     13  C   TYR A   1      25.459  68.635  -0.621  0.00  0.00    +0.224 C 
ATOM     14  O   TYR A   1      25.597  67.711  -1.441  0.00  0.00    -0.287 OA
ENDBRANCH  10  13
ENDBRANCH   9  10
ENDBRANCH   1   9
TORSDOF 5
REMARK  Name = ../refined-set-2016/3d4y/3d4y_pocket.pdb
REMARK  141 active torsions:
REMARK  status: ('A' for Active; 'I' for Inactive)
REMARK    1  A    between atoms: _1  and  _3
REMARK    2  A    between atoms: _14  and  _17
REMARK    3  A    between atoms: _17  and  _18
REMARK    4  A    between atoms: _25  and  _26
REMARK    5  A    between atoms: _33  and  _34
REMARK    6  A    between atoms: _39  and  _41
REMARK    7  A    between atoms: _41  and  _42
REMARK    8  A    between atoms: _44  and  _46
REMARK    9  A    between atoms: _46  and  _47
REMARK   10  A    between atoms: _46  and  _49
REMARK   11  A    between atoms: _49  and  _50
REMARK   12  A    between atoms: _60  and  _62
REMARK   13  A    between atoms: _62  and  _63
REMARK   14  A    between atoms: _62  and  _65
REMARK   15  A    between atoms: _65  and  _66
REMARK   16  A    between atoms: _69  and  _71
REMARK   17  A    between atoms: _71  and  _72
REMARK   18  A    between atoms: _71  and  _74
REMARK   19  A    between atoms: _74  and  _75
REMARK   20  A    between atoms: _80  and  _81
REMARK   21  A    between atoms: _83  and  _85
REMARK   22  A    between atoms: _85  and  _86
REMARK   23  A    between atoms: _85  and  _88
REMARK   24  A    between atoms: _88  and  _89
REMARK   25  A    between atoms: _89  and  _90
REMARK   26  A    between atoms: _93  and  _95
REMARK   27  A    between atoms: _95  and  _96
REMARK   28  A    between atoms: _95  and  _98
REMARK   29  A    between atoms: _98  and  _99
REMARK   30  A    between atoms: _99  and  _100
REMARK   31  A    between atoms: _102  and  _104
REMARK   32  A    between atoms: _104  and  _105
REMARK   33  A    between atoms: _104  and  _107
REMARK   34  A    between atoms: _107  and  _108
REMARK   35  A    between atoms: _111  and  _113
REMARK   36  A    between atoms: _113  and  _114
REMARK   37  A    between atoms: _113  and  _116
REMARK   38  A    between atoms: _116  and  _117
REMARK   39  A    between atoms: _117  and  _119
REMARK   40  A    between atoms: _119  and  ZN_385
REMARK   41  A    between atoms: _121  and  _122
REMARK   42  A    between atoms: _127  and  _129
REMARK   43  A    between atoms: _129  and  _130
REMARK   44  A    between atoms: _129  and  _132
REMARK   45  A    between atoms: _132  and  _133
REMARK   46  A    between atoms: _139  and  _141
REMARK   47  A    between atoms: _141  and  _142
REMARK   48  A    between atoms: _141  and  _144
REMARK   49  A    between atoms: _144  and  _145
REMARK   50  A    between atoms: _145  and  _146
REMARK   51  A    between atoms: _146  and  _147
REMARK   52  A    between atoms: _156  and  _158
REMARK   53  A    between atoms: _158  and  _159
REMARK   54  A    between atoms: _158  and  _161
REMARK   55  A    between atoms: _161  and  _162
REMARK   56  A    between atoms: _167  and  _168
REMARK   57  A    between atoms: _170  and  _172
REMARK   58  A    between atoms: _172  and  _173
REMARK   59  A    between atoms: _172  and  _175
REMARK   60  A    between atoms: _175  and  _176
REMARK   61  A    between atoms: _178  and  _180
REMARK   62  A    between atoms: _180  and  _181
REMARK   63  A    between atoms: _180  and  _183
REMARK   64  A    between atoms: _183  and  _184
REMARK   65  A    between atoms: _189  and  _190
REMARK   66  A    between atoms: _192  and  _194
REMARK   67  A    between atoms: _194  and  _195
REMARK   68  A    between atoms: _194  and  _197
REMARK   69  A    between atoms: _197  and  _198
REMARK   70  A    between atoms: _201  and  _203
REMARK   71  A    between atoms: _203  and  _204
REMARK   72  A    between atoms: _203  and  _206
REMARK   73  A    between atoms: _206  and  _207
REMARK   74  A    between atoms: _210  and  _212
REMARK   75  A    between atoms: _212  and  _213
REMARK   76  A    between atoms: _212  and  _215
REMARK   77  A    between atoms: _215  and  _216
REMARK   78  A    between atoms: _222  and  _224
REMARK   79  A    between atoms: _224  and  _225
REMARK   80  A    between atoms: _224  and  _227
REMARK   81  A    between atoms: _227  and  _228
REMARK   82  A    between atoms: _233  and  _234
REMARK   83  A    between atoms: _236  and  _238
REMARK   84  A    between atoms: _238  and  _239
REMARK   85  A    between atoms: _238  and  _241
REMARK   86  A    between atoms: _241  and  _242
REMARK   87  A    between atoms: _245  and  _247
REMARK   88  A    between atoms: _247  and  _248
REMARK   89  A    between atoms: _247  and  _250
REMARK   90  A    between atoms: _250  and  _251
REMARK   91  A    between atoms: _261  and  _263
REMARK   92  A    between atoms: _263  and  _264
REMARK   93  A    between atoms: _263  and  _266
REMARK   94  A    between atoms: _266  and  _267
REMARK   95  A    between atoms: _272  and  _274
REMARK   96  A    between atoms: _274  and  _275
REMARK   97  A    between atoms: _274  and  _277
REMARK   98  A    between atoms: _277  and  _278
REMARK   99  A    between atoms: _282  and  ZN_385
REMARK  100  A    between atoms: _283  and  _285
REMARK  101  A    between atoms: _285  and  _286
REMARK  102  A    between atoms: _285  and  _288
REMARK  103  A    between atoms: _288  and  _289
REMARK  104  A    between atoms: _292  and  _294
REMARK  105  A    between atoms: _294  and  _295
REMARK  106  A    between atoms: _297  and  _299
REMARK  107  A    between atoms: _299  and  _300
REMARK  108  A    between atoms: _299  and  _302
REMARK  109  A    between atoms: _302  and  _303
REMARK  110  A    between atoms: _306  and  _308
REMARK  111  A    between atoms: _308  and  _309
REMARK  112  A    between atoms: _308  and  _311
REMARK  113  A    between atoms: _311  and  _312
REMARK  114  A    between atoms: _315  and  _317
REMARK  115  A    between atoms: _317  and  _318
REMARK  116  A    between atoms: _321  and  _323
REMARK  117  A    between atoms: _323  and  _324
REMARK  118  A    between atoms: _323  and  _326
REMARK  119  A    between atoms: _326  and  _327
REMARK  120  A    between atoms: _332  and  _333
REMARK  121  A    between atoms: _335  and  _337
REMARK  122  A    between atoms: _337  and  _338
REMARK  123  A    between atoms: _337  and  _340
REMARK  124  A    between atoms: _340  and  _341
REMARK  125  A    between atoms: _344  and  _346
REMARK  126  A    between atoms: _346  and  _347
REMARK  127  A    between atoms: _346  and  _349
REMARK  128  A    between atoms: _349  and  _350
REMARK  129  A    between atoms: _350  and  _351
REMARK  130  A    between atoms: _354  and  _356
REMARK  131  A    between atoms: _356  and  _357
REMARK  132  A    between atoms: _356  and  _359
REMARK  133  A    between atoms: _359  and  _360
REMARK  134  A    between atoms: _360  and  _361
REMARK  135  A    between atoms: _361  and  _362
REMARK  136  A    between atoms: _371  and  _373
REMARK  137  A    between atoms: _373  and  _374
REMARK  138  A    between atoms: _376  and  _378
REMARK  139  A    between atoms: _378  and  _379
REMARK  140  A    between atoms: _378  and  _381
REMARK  141  A    between atoms: _381  and  _382
REMARK                            x       y       z     vdW  Elec       q    Type
REMARK                         _______ _______ _______ _____ _____    ______ ____
ROOT
ATOM      1  CA  ARG A   3      24.982  69.129   7.670  0.00  0.00    +0.149 C 
ENDROOT
BRANCH   1   4
ATOM      2  C   GLU A   2      22.883  70.339   8.043  0.00  0.00    +0.241 C 
ATOM      3  O   GLU A   2      22.426  69.402   8.721  0.00  0.00    -0.273 OA
ATOM      4  N   ARG A   3      24.078  70.265   7.450  0.00  0.00    -0.297 N 
ATOM      5  H   ARG A   3      24.376  71.033   6.815  0.00  0.00    +0.150 HD
BRANCH   2   6
ATOM      6  CA  GLU A   2      22.114  71.655   7.876  0.00  0.00    +0.149 C 
BRANCH   6   8
ATOM      7  C   ASP A   1      22.117  71.840   5.438  0.00  0.00    +0.239 C 
ATOM      8  N   GLU A   2      22.401  72.351   6.617  0.00  0.00    -0.297 N 
ATOM      9  H   GLU A   2      22.848  73.289   6.658  0.00  0.00    +0.150 HD
ATOM     10  O   ASP A   1      21.781  70.666   5.295  0.00  0.00    -0.274 OA
BRANCH   7  11
ATOM     11  CA  ASP A   1      22.215  72.802   4.229  0.00  0.00    +0.156 C 
BRANCH  11  12
ATOM     12  N   ASP A   1      23.079  73.972   4.470  0.00  0.00    -0.238 NA
ATOM     13  H   ASP A   1      24.113  73.857   4.465  0.00  0.00    +0.142 HD
ENDBRANCH  11  12
BRANCH  11  14
ATOM     14  CB  ASP A   1      22.637  72.089   2.953  0.00  0.00    +0.140 C 
BRANCH  14  15
ATOM     15  CG  ASP A   1      24.132  71.726   2.928  0.00  0.00    +0.367 C 
ATOM     16  OD2 ASP A   1      24.905  72.066   3.868  0.00  0.00    -0.246 OA
ATOM     17  OD1 ASP A   1      24.532  71.082   1.942  0.00  0.00    -0.246 OA
ENDBRANCH  14  15
ENDBRANCH  11  14
ENDBRANCH   7  11
ENDBRANCH   6   8
BRANCH   6  18
ATOM     18  CB  GLU A   2      20.606  71.405   8.028  0.00  0.00    +0.041 C 
BRANCH  18  19
ATOM     19  CG  GLU A   2      19.699  72.602   7.978  0.00  0.00    +0.116 C 
BRANCH  19  20
ATOM     20  CD  GLU A   2      18.346  72.247   8.569  0.00  0.00    +0.365 C 
ATOM     21  OE2 GLU A   2      18.302  71.938   9.791  0.00  0.00    -0.246 OA
ATOM     22  OE1 GLU A   2      17.345  72.242   7.818  0.00  0.00    -0.246 OA
ENDBRANCH  19  20
ENDBRANCH  18  19
ENDBRANCH   6  18
ENDBRANCH   2   6
ENDBRANCH   1   4
BRANCH   1  23
ATOM     23  C   ARG A   3      26.254  69.495   8.446  0.00  0.00    +0.241 C 
ATOM     24  N   GLY A   4      26.222  70.603   9.195  0.00  0.00    -0.295 N 
ATOM     25  H   GLY A   4      25.439  71.272   9.051  0.00  0.00    +0.150 HD
ATOM     26  O   ARG A   3      27.222  68.748   8.392  0.00  0.00    -0.273 OA
BRANCH  24  27
ATOM     27  CA  GLY A   4      27.240  70.927  10.215  0.00  0.00    +0.176 C 
BRANCH  27  28
ATOM     28  C   GLY A   4      28.263  71.978   9.763  0.00  0.00    +0.243 C 
ATOM     29  O   GLY A   4      29.077  72.453  10.569  0.00  0.00    -0.273 OA
ATOM     30  N   LEU A   5      28.232  72.329   8.486  0.00  0.00    -0.298 N 
ATOM     31  H   LEU A   5      27.555  71.875   7.840  0.00  0.00    +0.150 HD
BRANCH  30  32
ATOM     32  CA  LEU A   5      29.140  73.346   7.984  0.00  0.00    +0.137 C 
BRANCH  32  33
ATOM     33  C   LEU A   5      28.833  74.763   8.505  0.00  0.00    +0.227 C 
ATOM     34  O   LEU A   5      29.768  75.548   8.738  0.00  0.00    -0.286 OA
ENDBRANCH  32  33
BRANCH  32  35
ATOM     35  CB  LEU A   5      29.129  73.346   6.470  0.00  0.00    +0.028 C 
BRANCH  35  36
ATOM     36  CG  LEU A   5      30.087  74.262   5.737  0.00  0.00    +0.002 C 
ATOM     37  CD2 LEU A   5      31.523  74.028   6.235  0.00  0.00    +0.000 C 
ATOM     38  CD1 LEU A   5      29.986  73.922   4.302  0.00  0.00    +0.000 C 
ENDBRANCH  35  36
ENDBRANCH  32  35
ENDBRANCH  30  32
ENDBRANCH  27  28
ENDBRANCH  24  27
ENDBRANCH   1  23
BRANCH   1  39
ATOM     39  CB  ARG A   3      25.327  68.472   6.321  0.00  0.00    +0.033 C 
BRANCH  39  40
ATOM     40  CG  ARG A   3      24.042  67.950   5.538  0.00  0.00    +0.045 C 
BRANCH  40  41
ATOM     41  CD  ARG A   3      23.278  66.960   6.472  0.00  0.00    +0.174 C 
BRANCH  41  42
ATOM     42  NE  ARG A   3      22.216  66.196   5.785  0.00  0.00    -0.265 N 
ATOM     43  CZ  ARG A   3      20.998  66.661   5.515  0.00  0.00    +0.342 C 
ATOM     44  NH2 ARG A   3      20.700  67.947   5.758  0.00  0.00    -0.292 N 
ATOM     45 HH21 ARG A   3      21.421  68.581   6.158  0.00  0.00    +0.255 HD
ATOM     46 HH22 ARG A   3      19.748  68.309   5.547  0.00  0.00    +0.255 HD
ATOM     47  NH1 ARG A   3      20.106  65.839   4.963  0.00  0.00    -0.292 N 
ATOM     48 HH11 ARG A   3      20.367  64.855   4.751  0.00  0.00    +0.255 HD
ATOM     49 HH12 ARG A   3      19.149  66.182   4.744  0.00  0.00    +0.255 HD
ATOM     50  HE  ARG A   3      22.436  65.223   5.491  0.00  0.00    +0.259 HD
ENDBRANCH  41  42
ENDBRANCH  40  41
ENDBRANCH  39  40
ENDBRANCH   1  39
TORSDOF 21
REMARK  Name = ../refined-set-2016/3d4y/3d4y_pocket.pdb
REMARK  141 active torsions:
REMARK  status: ('A' for Active; 'I' for Inactive)
REMARK    1  A    between atoms: _1  and  _3
REMARK    2  A    between atoms: _14  and  _17
REMARK    3  A    between atoms: _17  and  _18
REMARK    4  A    between atoms: _25  and  _26
REMARK    5  A    between atoms: _33  and  _34
REMARK    6  A    between atoms: _39  and  _41
REMARK    7  A    between atoms: _41  and  _42
REMARK    8  A    between atoms: _44  and  _46
REMARK    9  A    between atoms: _46  and  _47
REMARK   10  A    between atoms: _46  and  _49
REMARK   11  A    between atoms: _49  and  _50
REMARK   12  A    between atoms: _60  and  _62
REMARK   13  A    between atoms: _62  and  _63
REMARK   14  A    between atoms: _62  and  _65
REMARK   15  A    between atoms: _65  and  _66
REMARK   16  A    between atoms: _69  and  _71
REMARK   17  A    between atoms: _71  and  _72
REMARK   18  A    between atoms: _71  and  _74
REMARK   19  A    between atoms: _74  and  _75
REMARK   20  A    between atoms: _80  and  _81
REMARK   21  A    between atoms: _83  and  _85
REMARK   22  A    between atoms: _85  and  _86
REMARK   23  A    between atoms: _85  and  _88
REMARK   24  A    between atoms: _88  and  _89
REMARK   25  A    between atoms: _89  and  _90
REMARK   26  A    between atoms: _93  and  _95
REMARK   27  A    between atoms: _95  and  _96
REMARK   28  A    between atoms: _95  and  _98
REMARK   29  A    between atoms: _98  and  _99
REMARK   30  A    between atoms: _99  and  _100
REMARK   31  A    between atoms: _102  and  _104
REMARK   32  A    between atoms: _104  and  _105
REMARK   33  A    between atoms: _104  and  _107
REMARK   34  A    between atoms: _107  and  _108
REMARK   35  A    between atoms: _111  and  _113
REMARK   36  A    between atoms: _113  and  _114
REMARK   37  A    between atoms: _113  and  _116
REMARK   38  A    between atoms: _116  and  _117
REMARK   39  A    between atoms: _117  and  _119
REMARK   40  A    between atoms: _119  and  ZN_385
REMARK   41  A    between atoms: _121  and  _122
REMARK   42  A    between atoms: _127  and  _129
REMARK   43  A    between atoms: _129  and  _130
REMARK   44  A    between atoms: _129  and  _132
REMARK   45  A    between atoms: _132  and  _133
REMARK   46  A    between atoms: _139  and  _141
REMARK   47  A    between atoms: _141  and  _142
REMARK   48  A    between atoms: _141  and  _144
REMARK   49  A    between atoms: _144  and  _145
REMARK   50  A    between atoms: _145  and  _146
REMARK   51  A    between atoms: _146  and  _147
REMARK   52  A    between atoms: _156  and  _158
REMARK   53  A    between atoms: _158  and  _159
REMARK   54  A    between atoms: _158  and  _161
REMARK   55  A    between atoms: _161  and  _162
REMARK   56  A    between atoms: _167  and  _168
REMARK   57  A    between atoms: _170  and  _172
REMARK   58  A    between atoms: _172  and  _173
REMARK   59  A    between atoms: _172  and  _175
REMARK   60  A    between atoms: _175  and  _176
REMARK   61  A    between atoms: _178  and  _180
REMARK   62  A    between atoms: _180  and  _181
REMARK   63  A    between atoms: _180  and  _183
REMARK   64  A    between atoms: _183  and  _184
REMARK   65  A    between atoms: _189  and  _190
REMARK   66  A    between atoms: _192  and  _194
REMARK   67  A    between atoms: _194  and  _195
REMARK   68  A    between atoms: _194  and  _197
REMARK   69  A    between atoms: _197  and  _198
REMARK   70  A    between atoms: _201  and  _203
REMARK   71  A    between atoms: _203  and  _204
REMARK   72  A    between atoms: _203  and  _206
REMARK   73  A    between atoms: _206  and  _207
REMARK   74  A    between atoms: _210  and  _212
REMARK   75  A    between atoms: _212  and  _213
REMARK   76  A    between atoms: _212  and  _215
REMARK   77  A    between atoms: _215  and  _216
REMARK   78  A    between atoms: _222  and  _224
REMARK   79  A    between atoms: _224  and  _225
REMARK   80  A    between atoms: _224  and  _227
REMARK   81  A    between atoms: _227  and  _228
REMARK   82  A    between atoms: _233  and  _234
REMARK   83  A    between atoms: _236  and  _238
REMARK   84  A    between atoms: _238  and  _239
REMARK   85  A    between atoms: _238  and  _241
REMARK   86  A    between atoms: _241  and  _242
REMARK   87  A    between atoms: _245  and  _247
REMARK   88  A    between atoms: _247  and  _248
REMARK   89  A    between atoms: _247  and  _250
REMARK   90  A    between atoms: _250  and  _251
REMARK   91  A    between atoms: _261  and  _263
REMARK   92  A    between atoms: _263  and  _264
REMARK   93  A    between atoms: _263  and  _266
REMARK   94  A    between atoms: _266  and  _267
REMARK   95  A    between atoms: _272  and  _274
REMARK   96  A    between atoms: _274  and  _275
REMARK   97  A    between atoms: _274  and  _277
REMARK   98  A    between atoms: _277  and  _278
REMARK   99  A    between atoms: _282  and  ZN_385
REMARK  100  A    between atoms: _283  and  _285
REMARK  101  A    between atoms: _285  and  _286
REMARK  102  A    between atoms: _285  and  _288
REMARK  103  A    between atoms: _288  and  _289
REMARK  104  A    between atoms: _292  and  _294
REMARK  105  A    between atoms: _294  and  _295
REMARK  106  A    between atoms: _297  and  _299
REMARK  107  A    between atoms: _299  and  _300
REMARK  108  A    between atoms: _299  and  _302
REMARK  109  A    between atoms: _302  and  _303
REMARK  110  A    between atoms: _306  and  _308
REMARK  111  A    between atoms: _308  and  _309
REMARK  112  A    between atoms: _308  and  _311
REMARK  113  A    between atoms: _311  and  _312
REMARK  114  A    between atoms: _315  and  _317
REMARK  115  A    between atoms: _317  and  _318
REMARK  116  A    between atoms: _321  and  _323
REMARK  117  A    between atoms: _323  and  _324
REMARK  118  A    between atoms: _323  and  _326
REMARK  119  A    between atoms: _326  and  _327
REMARK  120  A    between atoms: _332  and  _333
REMARK  121  A    between atoms: _335  and  _337
REMARK  122  A    between atoms: _337  and  _338
REMARK  123  A    between atoms: _337  and  _340
REMARK  124  A    between atoms: _340  and  _341
REMARK  125  A    between atoms: _344  and  _346
REMARK  126  A    between atoms: _346  and  _347
REMARK  127  A    between atoms: _346  and  _349
REMARK  128  A    between atoms: _349  and  _350
REMARK  129  A    between atoms: _350  and  _351
REMARK  130  A    between atoms: _354  and  _356
REMARK  131  A    between atoms: _356  and  _357
REMARK  132  A    between atoms: _356  and  _359
REMARK  133  A    between atoms: _359  and  _360
REMARK  134  A    between atoms: _360  and  _361
REMARK  135  A    between atoms: _361  and  _362
REMARK  136  A    between atoms: _371  and  _373
REMARK  137  A    between atoms: _373  and  _374
REMARK  138  A    between atoms: _376  and  _378
REMARK  139  A    between atoms: _378  and  _379
REMARK  140  A    between atoms: _378  and  _381
REMARK  141  A    between atoms: _381  and  _382
REMARK                            x       y       z     vdW  Elec       q    Type
REMARK                         _______ _______ _______ _____ _____    ______ ____
ROOT
ATOM      1  O   HOH     1      27.129  58.520   8.750  0.00  0.00    +0.000 OA
ENDROOT
TORSDOF 0
REMARK  Name = ../refined-set-2016/3d4y/3d4y_pocket.pdb
REMARK  141 active torsions:
REMARK  status: ('A' for Active; 'I' for Inactive)
REMARK    1  A    between atoms: _1  and  _3
REMARK    2  A    between atoms: _14  and  _17
REMARK    3  A    between atoms: _17  and  _18
REMARK    4  A    between atoms: _25  and  _26
REMARK    5  A    between atoms: _33  and  _34
REMARK    6  A    between atoms: _39  and  _41
REMARK    7  A    between atoms: _41  and  _42
REMARK    8  A    between atoms: _44  and  _46
REMARK    9  A    between atoms: _46  and  _47
REMARK   10  A    between atoms: _46  and  _49
REMARK   11  A    between atoms: _49  and  _50
REMARK   12  A    between atoms: _60  and  _62
REMARK   13  A    between atoms: _62  and  _63
REMARK   14  A    between atoms: _62  and  _65
REMARK   15  A    between atoms: _65  and  _66
REMARK   16  A    between atoms: _69  and  _71
REMARK   17  A    between atoms: _71  and  _72
REMARK   18  A    between atoms: _71  and  _74
REMARK   19  A    between atoms: _74  and  _75
REMARK   20  A    between atoms: _80  and  _81
REMARK   21  A    between atoms: _83  and  _85
REMARK   22  A    between atoms: _85  and  _86
REMARK   23  A    between atoms: _85  and  _88
REMARK   24  A    between atoms: _88  and  _89
REMARK   25  A    between atoms: _89  and  _90
REMARK   26  A    between atoms: _93  and  _95
REMARK   27  A    between atoms: _95  and  _96
REMARK   28  A    between atoms: _95  and  _98
REMARK   29  A    between atoms: _98  and  _99
REMARK   30  A    between atoms: _99  and  _100
REMARK   31  A    between atoms: _102  and  _104
REMARK   32  A    between atoms: _104  and  _105
REMARK   33  A    between atoms: _104  and  _107
REMARK   34  A    between atoms: _107  and  _108
REMARK   35  A    between atoms: _111  and  _113
REMARK   36  A    between atoms: _113  and  _114
REMARK   37  A    between atoms: _113  and  _116
REMARK   38  A    between atoms: _116  and  _117
REMARK   39  A    between atoms: _117  and  _119
REMARK   40  A    between atoms: _119  and  ZN_385
REMARK   41  A    between atoms: _121  and  _122
REMARK   42  A    between atoms: _127  and  _129
REMARK   43  A    between atoms: _129  and  _130
REMARK   44  A    between atoms: _129  and  _132
REMARK   45  A    between atoms: _132  and  _133
REMARK   46  A    between atoms: _139  and  _141
REMARK   47  A    between atoms: _141  and  _142
REMARK   48  A    between atoms: _141  and  _144
REMARK   49  A    between atoms: _144  and  _145
REMARK   50  A    between atoms: _145  and  _146
REMARK   51  A    between atoms: _146  and  _147
REMARK   52  A    between atoms: _156  and  _158
REMARK   53  A    between atoms: _158  and  _159
REMARK   54  A    between atoms: _158  and  _161
REMARK   55  A    between atoms: _161  and  _162
REMARK   56  A    between atoms: _167  and  _168
REMARK   57  A    between atoms: _170  and  _172
REMARK   58  A    between atoms: _172  and  _173
REMARK   59  A    between atoms: _172  and  _175
REMARK   60  A    between atoms: _175  and  _176
REMARK   61  A    between atoms: _178  and  _180
REMARK   62  A    between atoms: _180  and  _181
REMARK   63  A    between atoms: _180  and  _183
REMARK   64  A    between atoms: _183  and  _184
REMARK   65  A    between atoms: _189  and  _190
REMARK   66  A    between atoms: _192  and  _194
REMARK   67  A    between atoms: _194  and  _195
REMARK   68  A    between atoms: _194  and  _197
REMARK   69  A    between atoms: _197  and  _198
REMARK   70  A    between atoms: _201  and  _203
REMARK   71  A    between atoms: _203  and  _204
REMARK   72  A    between atoms: _203  and  _206
REMARK   73  A    between atoms: _206  and  _207
REMARK   74  A    between atoms: _210  and  _212
REMARK   75  A    between atoms: _212  and  _213
REMARK   76  A    between atoms: _212  and  _215
REMARK   77  A    between atoms: _215  and  _216
REMARK   78  A    between atoms: _222  and  _224
REMARK   79  A    between atoms: _224  and  _225
REMARK   80  A    between atoms: _224  and  _227
REMARK   81  A    between atoms: _227  and  _228
REMARK   82  A    between atoms: _233  and  _234
REMARK   83  A    between atoms: _236  and  _238
REMARK   84  A    between atoms: _238  and  _239
REMARK   85  A    between atoms: _238  and  _241
REMARK   86  A    between atoms: _241  and  _242
REMARK   87  A    between atoms: _245  and  _247
REMARK   88  A    between atoms: _247  and  _248
REMARK   89  A    between atoms: _247  and  _250
REMARK   90  A    between atoms: _250  and  _251
REMARK   91  A    between atoms: _261  and  _263
REMARK   92  A    between atoms: _263  and  _264
REMARK   93  A    between atoms: _263  and  _266
REMARK   94  A    between atoms: _266  and  _267
REMARK   95  A    between atoms: _272  and  _274
REMARK   96  A    between atoms: _274  and  _275
REMARK   97  A    between atoms: _274  and  _277
REMARK   98  A    between atoms: _277  and  _278
REMARK   99  A    between atoms: _282  and  ZN_385
REMARK  100  A    between atoms: _283  and  _285
REMARK  101  A    between atoms: _285  and  _286
REMARK  102  A    between atoms: _285  and  _288
REMARK  103  A    between atoms: _288  and  _289
REMARK  104  A    between atoms: _292  and  _294
REMARK  105  A    between atoms: _294  and  _295
REMARK  106  A    between atoms: _297  and  _299
REMARK  107  A    between atoms: _299  and  _300
REMARK  108  A    between atoms: _299  and  _302
REMARK  109  A    between atoms: _302  and  _303
REMARK  110  A    between atoms: _306  and  _308
REMARK  111  A    between atoms: _308  and  _309
REMARK  112  A    between atoms: _308  and  _311
REMARK  113  A    between atoms: _311  and  _312
REMARK  114  A    between atoms: _315  and  _317
REMARK  115  A    between atoms: _317  and  _318
REMARK  116  A    between atoms: _321  and  _323
REMARK  117  A    between atoms: _323  and  _324
REMARK  118  A    between atoms: _323  and  _326
REMARK  119  A    between atoms: _326  and  _327
REMARK  120  A    between atoms: _332  and  _333
REMARK  121  A    between atoms: _335  and  _337
REMARK  122  A    between atoms: _337  and  _338
REMARK  123  A    between atoms: _337  and  _340
REMARK  124  A    between atoms: _340  and  _341
REMARK  125  A    between atoms: _344  and  _346
REMARK  126  A    between atoms: _346  and  _347
REMARK  127  A    between atoms: _346  and  _349
REMARK  128  A    between atoms: _349  and  _350
REMARK  129  A    between atoms: _350  and  _351
REMARK  130  A    between atoms: _354  and  _356
REMARK  131  A    between atoms: _356  and  _357
REMARK  132  A    between atoms: _356  and  _359
REMARK  133  A    between atoms: _359  and  _360
REMARK  134  A    between atoms: _360  and  _361
REMARK  135  A    between atoms: _361  and  _362
REMARK  136  A    between atoms: _371  and  _373
REMARK  137  A    between atoms: _373  and  _374
REMARK  138  A    between atoms: _376  and  _378
REMARK  139  A    between atoms: _378  and  _379
REMARK  140  A    between atoms: _378  and  _381
REMARK  141  A    between atoms: _381  and  _382
REMARK                            x       y       z     vdW  Elec       q    Type
REMARK                         _______ _______ _______ _____ _____    ______ ____
ROOT
ATOM      1  O   HOH     1      27.410  60.005  10.502  0.00  0.00    +0.000 OA
ENDROOT
TORSDOF 0
REMARK  Name = ../refined-set-2016/3d4y/3d4y_pocket.pdb
REMARK  141 active torsions:
REMARK  status: ('A' for Active; 'I' for Inactive)
REMARK    1  A    between atoms: _1  and  _3
REMARK    2  A    between atoms: _14  and  _17
REMARK    3  A    between atoms: _17  and  _18
REMARK    4  A    between atoms: _25  and  _26
REMARK    5  A    between atoms: _33  and  _34
REMARK    6  A    between atoms: _39  and  _41
REMARK    7  A    between atoms: _41  and  _42
REMARK    8  A    between atoms: _44  and  _46
REMARK    9  A    between atoms: _46  and  _47
REMARK   10  A    between atoms: _46  and  _49
REMARK   11  A    between atoms: _49  and  _50
REMARK   12  A    between atoms: _60  and  _62
REMARK   13  A    between atoms: _62  and  _63
REMARK   14  A    between atoms: _62  and  _65
REMARK   15  A    between atoms: _65  and  _66
REMARK   16  A    between atoms: _69  and  _71
REMARK   17  A    between atoms: _71  and  _72
REMARK   18  A    between atoms: _71  and  _74
REMARK   19  A    between atoms: _74  and  _75
REMARK   20  A    between atoms: _80  and  _81
REMARK   21  A    between atoms: _83  and  _85
REMARK   22  A    between atoms: _85  and  _86
REMARK   23  A    between atoms: _85  and  _88
REMARK   24  A    between atoms: _88  and  _89
REMARK   25  A    between atoms: _89  and  _90
REMARK   26  A    between atoms: _93  and  _95
REMARK   27  A    between atoms: _95  and  _96
REMARK   28  A    between atoms: _95  and  _98
REMARK   29  A    between atoms: _98  and  _99
REMARK   30  A    between atoms: _99  and  _100
REMARK   31  A    between atoms: _102  and  _104
REMARK   32  A    between atoms: _104  and  _105
REMARK   33  A    between atoms: _104  and  _107
REMARK   34  A    between atoms: _107  and  _108
REMARK   35  A    between atoms: _111  and  _113
REMARK   36  A    between atoms: _113  and  _114
REMARK   37  A    between atoms: _113  and  _116
REMARK   38  A    between atoms: _116  and  _117
REMARK   39  A    between atoms: _117  and  _119
REMARK   40  A    between atoms: _119  and  ZN_385
REMARK   41  A    between atoms: _121  and  _122
REMARK   42  A    between atoms: _127  and  _129
REMARK   43  A    between atoms: _129  and  _130
REMARK   44  A    between atoms: _129  and  _132
REMARK   45  A    between atoms: _132  and  _133
REMARK   46  A    between atoms: _139  and  _141
REMARK   47  A    between atoms: _141  and  _142
REMARK   48  A    between atoms: _141  and  _144
REMARK   49  A    between atoms: _144  and  _145
REMARK   50  A    between atoms: _145  and  _146
REMARK   51  A    between atoms: _146  and  _147
REMARK   52  A    between atoms: _156  and  _158
REMARK   53  A    between atoms: _158  and  _159
REMARK   54  A    between atoms: _158  and  _161
REMARK   55  A    between atoms: _161  and  _162
REMARK   56  A    between atoms: _167  and  _168
REMARK   57  A    between atoms: _170  and  _172
REMARK   58  A    between atoms: _172  and  _173
REMARK   59  A    between atoms: _172  and  _175
REMARK   60  A    between atoms: _175  and  _176
REMARK   61  A    between atoms: _178  and  _180
REMARK   62  A    between atoms: _180  and  _181
REMARK   63  A    between atoms: _180  and  _183
REMARK   64  A    between atoms: _183  and  _184
REMARK   65  A    between atoms: _189  and  _190
REMARK   66  A    between atoms: _192  and  _194
REMARK   67  A    between atoms: _194  and  _195
REMARK   68  A    between atoms: _194  and  _197
REMARK   69  A    between atoms: _197  and  _198
REMARK   70  A    between atoms: _201  and  _203
REMARK   71  A    between atoms: _203  and  _204
REMARK   72  A    between atoms: _203  and  _206
REMARK   73  A    between atoms: _206  and  _207
REMARK   74  A    between atoms: _210  and  _212
REMARK   75  A    between atoms: _212  and  _213
REMARK   76  A    between atoms: _212  and  _215
REMARK   77  A    between atoms: _215  and  _216
REMARK   78  A    between atoms: _222  and  _224
REMARK   79  A    between atoms: _224  and  _225
REMARK   80  A    between atoms: _224  and  _227
REMARK   81  A    between atoms: _227  and  _228
REMARK   82  A    between atoms: _233  and  _234
REMARK   83  A    between atoms: _236  and  _238
REMARK   84  A    between atoms: _238  and  _239
REMARK   85  A    between atoms: _238  and  _241
REMARK   86  A    between atoms: _241  and  _242
REMARK   87  A    between atoms: _245  and  _247
REMARK   88  A    between atoms: _247  and  _248
REMARK   89  A    between atoms: _247  and  _250
REMARK   90  A    between atoms: _250  and  _251
REMARK   91  A    between atoms: _261  and  _263
REMARK   92  A    between atoms: _263  and  _264
REMARK   93  A    between atoms: _263  and  _266
REMARK   94  A    between atoms: _266  and  _267
REMARK   95  A    between atoms: _272  and  _274
REMARK   96  A    between atoms: _274  and  _275
REMARK   97  A    between atoms: _274  and  _277
REMARK   98  A    between atoms: _277  and  _278
REMARK   99  A    between atoms: _282  and  ZN_385
REMARK  100  A    between atoms: _283  and  _285
REMARK  101  A    between atoms: _285  and  _286
REMARK  102  A    between atoms: _285  and  _288
REMARK  103  A    between atoms: _288  and  _289
REMARK  104  A    between atoms: _292  and  _294
REMARK  105  A    between atoms: _294  and  _295
REMARK  106  A    between atoms: _297  and  _299
REMARK  107  A    between atoms: _299  and  _300
REMARK  108  A    between atoms: _299  and  _302
REMARK  109  A    between atoms: _302  and  _303
REMARK  110  A    between atoms: _306  and  _308
REMARK  111  A    between atoms: _308  and  _309
REMARK  112  A    between atoms: _308  and  _311
REMARK  113  A    between atoms: _311  and  _312
REMARK  114  A    between atoms: _315  and  _317
REMARK  115  A    between atoms: _317  and  _318
REMARK  116  A    between atoms: _321  and  _323
REMARK  117  A    between atoms: _323  and  _324
REMARK  118  A    between atoms: _323  and  _326
REMARK  119  A    between atoms: _326  and  _327
REMARK  120  A    between atoms: _332  and  _333
REMARK  121  A    between atoms: _335  and  _337
REMARK  122  A    between atoms: _337  and  _338
REMARK  123  A    between atoms: _337  and  _340
REMARK  124  A    between atoms: _340  and  _341
REMARK  125  A    between atoms: _344  and  _346
REMARK  126  A    between atoms: _346  and  _347
REMARK  127  A    between atoms: _346  and  _349
REMARK  128  A    between atoms: _349  and  _350
REMARK  129  A    between atoms: _350  and  _351
REMARK  130  A    between atoms: _354  and  _356
REMARK  131  A    between atoms: _356  and  _357
REMARK  132  A    between atoms: _356  and  _359
REMARK  133  A    between atoms: _359  and  _360
REMARK  134  A    between atoms: _360  and  _361
REMARK  135  A    between atoms: _361  and  _362
REMARK  136  A    between atoms: _371  and  _373
REMARK  137  A    between atoms: _373  and  _374
REMARK  138  A    between atoms: _376  and  _378
REMARK  139  A    between atoms: _378  and  _379
REMARK  140  A    between atoms: _378  and  _381
REMARK  141  A    between atoms: _381  and  _382
REMARK                            x       y       z     vdW  Elec       q    Type
REMARK                         _______ _______ _______ _____ _____    ______ ____
ROOT
ATOM      1  O   HOH     1      24.389  60.779   9.419  0.00  0.00    +0.000 OA
ENDROOT
TORSDOF 0
REMARK  Name = ../refined-set-2016/3d4y/3d4y_pocket.pdb
REMARK  141 active torsions:
REMARK  status: ('A' for Active; 'I' for Inactive)
REMARK    1  A    between atoms: _1  and  _3
REMARK    2  A    between atoms: _14  and  _17
REMARK    3  A    between atoms: _17  and  _18
REMARK    4  A    between atoms: _25  and  _26
REMARK    5  A    between atoms: _33  and  _34
REMARK    6  A    between atoms: _39  and  _41
REMARK    7  A    between atoms: _41  and  _42
REMARK    8  A    between atoms: _44  and  _46
REMARK    9  A    between atoms: _46  and  _47
REMARK   10  A    between atoms: _46  and  _49
REMARK   11  A    between atoms: _49  and  _50
REMARK   12  A    between atoms: _60  and  _62
REMARK   13  A    between atoms: _62  and  _63
REMARK   14  A    between atoms: _62  and  _65
REMARK   15  A    between atoms: _65  and  _66
REMARK   16  A    between atoms: _69  and  _71
REMARK   17  A    between atoms: _71  and  _72
REMARK   18  A    between atoms: _71  and  _74
REMARK   19  A    between atoms: _74  and  _75
REMARK   20  A    between atoms: _80  and  _81
REMARK   21  A    between atoms: _83  and  _85
REMARK   22  A    between atoms: _85  and  _86
REMARK   23  A    between atoms: _85  and  _88
REMARK   24  A    between atoms: _88  and  _89
REMARK   25  A    between atoms: _89  and  _90
REMARK   26  A    between atoms: _93  and  _95
REMARK   27  A    between atoms: _95  and  _96
REMARK   28  A    between atoms: _95  and  _98
REMARK   29  A    between atoms: _98  and  _99
REMARK   30  A    between atoms: _99  and  _100
REMARK   31  A    between atoms: _102  and  _104
REMARK   32  A    between atoms: _104  and  _105
REMARK   33  A    between atoms: _104  and  _107
REMARK   34  A    between atoms: _107  and  _108
REMARK   35  A    between atoms: _111  and  _113
REMARK   36  A    between atoms: _113  and  _114
REMARK   37  A    between atoms: _113  and  _116
REMARK   38  A    between atoms: _116  and  _117
REMARK   39  A    between atoms: _117  and  _119
REMARK   40  A    between atoms: _119  and  ZN_385
REMARK   41  A    between atoms: _121  and  _122
REMARK   42  A    between atoms: _127  and  _129
REMARK   43  A    between atoms: _129  and  _130
REMARK   44  A    between atoms: _129  and  _132
REMARK   45  A    between atoms: _132  and  _133
REMARK   46  A    between atoms: _139  and  _141
REMARK   47  A    between atoms: _141  and  _142
REMARK   48  A    between atoms: _141  and  _144
REMARK   49  A    between atoms: _144  and  _145
REMARK   50  A    between atoms: _145  and  _146
REMARK   51  A    between atoms: _146  and  _147
REMARK   52  A    between atoms: _156  and  _158
REMARK   53  A    between atoms: _158  and  _159
REMARK   54  A    between atoms: _158  and  _161
REMARK   55  A    between atoms: _161  and  _162
REMARK   56  A    between atoms: _167  and  _168
REMARK   57  A    between atoms: _170  and  _172
REMARK   58  A    between atoms: _172  and  _173
REMARK   59  A    between atoms: _172  and  _175
REMARK   60  A    between atoms: _175  and  _176
REMARK   61  A    between atoms: _178  and  _180
REMARK   62  A    between atoms: _180  and  _181
REMARK   63  A    between atoms: _180  and  _183
REMARK   64  A    between atoms: _183  and  _184
REMARK   65  A    between atoms: _189  and  _190
REMARK   66  A    between atoms: _192  and  _194
REMARK   67  A    between atoms: _194  and  _195
REMARK   68  A    between atoms: _194  and  _197
REMARK   69  A    between atoms: _197  and  _198
REMARK   70  A    between atoms: _201  and  _203
REMARK   71  A    between atoms: _203  and  _204
REMARK   72  A    between atoms: _203  and  _206
REMARK   73  A    between atoms: _206  and  _207
REMARK   74  A    between atoms: _210  and  _212
REMARK   75  A    between atoms: _212  and  _213
REMARK   76  A    between atoms: _212  and  _215
REMARK   77  A    between atoms: _215  and  _216
REMARK   78  A    between atoms: _222  and  _224
REMARK   79  A    between atoms: _224  and  _225
REMARK   80  A    between atoms: _224  and  _227
REMARK   81  A    between atoms: _227  and  _228
REMARK   82  A    between atoms: _233  and  _234
REMARK   83  A    between atoms: _236  and  _238
REMARK   84  A    between atoms: _238  and  _239
REMARK   85  A    between atoms: _238  and  _241
REMARK   86  A    between atoms: _241  and  _242
REMARK   87  A    between atoms: _245  and  _247
REMARK   88  A    between atoms: _247  and  _248
REMARK   89  A    between atoms: _247  and  _250
REMARK   90  A    between atoms: _250  and  _251
REMARK   91  A    between atoms: _261  and  _263
REMARK   92  A    between atoms: _263  and  _264
REMARK   93  A    between atoms: _263  and  _266
REMARK   94  A    between atoms: _266  and  _267
REMARK   95  A    between atoms: _272  and  _274
REMARK   96  A    between atoms: _274  and  _275
REMARK   97  A    between atoms: _274  and  _277
REMARK   98  A    between atoms: _277  and  _278
REMARK   99  A    between atoms: _282  and  ZN_385
REMARK  100  A    between atoms: _283  and  _285
REMARK  101  A    between atoms: _285  and  _286
REMARK  102  A    between atoms: _285  and  _288
REMARK  103  A    between atoms: _288  and  _289
REMARK  104  A    between atoms: _292  and  _294
REMARK  105  A    between atoms: _294  and  _295
REMARK  106  A    between atoms: _297  and  _299
REMARK  107  A    between atoms: _299  and  _300
REMARK  108  A    between atoms: _299  and  _302
REMARK  109  A    between atoms: _302  and  _303
REMARK  110  A    between atoms: _306  and  _308
REMARK  111  A    between atoms: _308  and  _309
REMARK  112  A    between atoms: _308  and  _311
REMARK  113  A    between atoms: _311  and  _312
REMARK  114  A    between atoms: _315  and  _317
REMARK  115  A    between atoms: _317  and  _318
REMARK  116  A    between atoms: _321  and  _323
REMARK  117  A    between atoms: _323  and  _324
REMARK  118  A    between atoms: _323  and  _326
REMARK  119  A    between atoms: _326  and  _327
REMARK  120  A    between atoms: _332  and  _333
REMARK  121  A    between atoms: _335  and  _337
REMARK  122  A    between atoms: _337  and  _338
REMARK  123  A    between atoms: _337  and  _340
REMARK  124  A    between atoms: _340  and  _341
REMARK  125  A    between atoms: _344  and  _346
REMARK  126  A    between atoms: _346  and  _347
REMARK  127  A    between atoms: _346  and  _349
REMARK  128  A    between atoms: _349  and  _350
REMARK  129  A    between atoms: _350  and  _351
REMARK  130  A    between atoms: _354  and  _356
REMARK  131  A    between atoms: _356  and  _357
REMARK  132  A    between atoms: _356  and  _359
REMARK  133  A    between atoms: _359  and  _360
REMARK  134  A    between atoms: _360  and  _361
REMARK  135  A    between atoms: _361  and  _362
REMARK  136  A    between atoms: _371  and  _373
REMARK  137  A    between atoms: _373  and  _374
REMARK  138  A    between atoms: _376  and  _378
REMARK  139  A    between atoms: _378  and  _379
REMARK  140  A    between atoms: _378  and  _381
REMARK  141  A    between atoms: _381  and  _382
REMARK                            x       y       z     vdW  Elec       q    Type
REMARK                         _______ _______ _______ _____ _____    ______ ____
ROOT
ATOM      1  O   HOH     1      23.985  62.741   7.987  0.00  0.00    +0.000 OA
ENDROOT
TORSDOF 0
REMARK  Name = ../refined-set-2016/3d4y/3d4y_pocket.pdb
REMARK  141 active torsions:
REMARK  status: ('A' for Active; 'I' for Inactive)
REMARK    1  A    between atoms: _1  and  _3
REMARK    2  A    between atoms: _14  and  _17
REMARK    3  A    between atoms: _17  and  _18
REMARK    4  A    between atoms: _25  and  _26
REMARK    5  A    between atoms: _33  and  _34
REMARK    6  A    between atoms: _39  and  _41
REMARK    7  A    between atoms: _41  and  _42
REMARK    8  A    between atoms: _44  and  _46
REMARK    9  A    between atoms: _46  and  _47
REMARK   10  A    between atoms: _46  and  _49
REMARK   11  A    between atoms: _49  and  _50
REMARK   12  A    between atoms: _60  and  _62
REMARK   13  A    between atoms: _62  and  _63
REMARK   14  A    between atoms: _62  and  _65
REMARK   15  A    between atoms: _65  and  _66
REMARK   16  A    between atoms: _69  and  _71
REMARK   17  A    between atoms: _71  and  _72
REMARK   18  A    between atoms: _71  and  _74
REMARK   19  A    between atoms: _74  and  _75
REMARK   20  A    between atoms: _80  and  _81
REMARK   21  A    between atoms: _83  and  _85
REMARK   22  A    between atoms: _85  and  _86
REMARK   23  A    between atoms: _85  and  _88
REMARK   24  A    between atoms: _88  and  _89
REMARK   25  A    between atoms: _89  and  _90
REMARK   26  A    between atoms: _93  and  _95
REMARK   27  A    between atoms: _95  and  _96
REMARK   28  A    between atoms: _95  and  _98
REMARK   29  A    between atoms: _98  and  _99
REMARK   30  A    between atoms: _99  and  _100
REMARK   31  A    between atoms: _102  and  _104
REMARK   32  A    between atoms: _104  and  _105
REMARK   33  A    between atoms: _104  and  _107
REMARK   34  A    between atoms: _107  and  _108
REMARK   35  A    between atoms: _111  and  _113
REMARK   36  A    between atoms: _113  and  _114
REMARK   37  A    between atoms: _113  and  _116
REMARK   38  A    between atoms: _116  and  _117
REMARK   39  A    between atoms: _117  and  _119
REMARK   40  A    between atoms: _119  and  ZN_385
REMARK   41  A    between atoms: _121  and  _122
REMARK   42  A    between atoms: _127  and  _129
REMARK   43  A    between atoms: _129  and  _130
REMARK   44  A    between atoms: _129  and  _132
REMARK   45  A    between atoms: _132  and  _133
REMARK   46  A    between atoms: _139  and  _141
REMARK   47  A    between atoms: _141  and  _142
REMARK   48  A    between atoms: _141  and  _144
REMARK   49  A    between atoms: _144  and  _145
REMARK   50  A    between atoms: _145  and  _146
REMARK   51  A    between atoms: _146  and  _147
REMARK   52  A    between atoms: _156  and  _158
REMARK   53  A    between atoms: _158  and  _159
REMARK   54  A    between atoms: _158  and  _161
REMARK   55  A    between atoms: _161  and  _162
REMARK   56  A    between atoms: _167  and  _168
REMARK   57  A    between atoms: _170  and  _172
REMARK   58  A    between atoms: _172  and  _173
REMARK   59  A    between atoms: _172  and  _175
REMARK   60  A    between atoms: _175  and  _176
REMARK   61  A    between atoms: _178  and  _180
REMARK   62  A    between atoms: _180  and  _181
REMARK   63  A    between atoms: _180  and  _183
REMARK   64  A    between atoms: _183  and  _184
REMARK   65  A    between atoms: _189  and  _190
REMARK   66  A    between atoms: _192  and  _194
REMARK   67  A    between atoms: _194  and  _195
REMARK   68  A    between atoms: _194  and  _197
REMARK   69  A    between atoms: _197  and  _198
REMARK   70  A    between atoms: _201  and  _203
REMARK   71  A    between atoms: _203  and  _204
REMARK   72  A    between atoms: _203  and  _206
REMARK   73  A    between atoms: _206  and  _207
REMARK   74  A    between atoms: _210  and  _212
REMARK   75  A    between atoms: _212  and  _213
REMARK   76  A    between atoms: _212  and  _215
REMARK   77  A    between atoms: _215  and  _216
REMARK   78  A    between atoms: _222  and  _224
REMARK   79  A    between atoms: _224  and  _225
REMARK   80  A    between atoms: _224  and  _227
REMARK   81  A    between atoms: _227  and  _228
REMARK   82  A    between atoms: _233  and  _234
REMARK   83  A    between atoms: _236  and  _238
REMARK   84  A    between atoms: _238  and  _239
REMARK   85  A    between atoms: _238  and  _241
REMARK   86  A    between atoms: _241  and  _242
REMARK   87  A    between atoms: _245  and  _247
REMARK   88  A    between atoms: _247  and  _248
REMARK   89  A    between atoms: _247  and  _250
REMARK   90  A    between atoms: _250  and  _251
REMARK   91  A    between atoms: _261  and  _263
REMARK   92  A    between atoms: _263  and  _264
REMARK   93  A    between atoms: _263  and  _266
REMARK   94  A    between atoms: _266  and  _267
REMARK   95  A    between atoms: _272  and  _274
REMARK   96  A    between atoms: _274  and  _275
REMARK   97  A    between atoms: _274  and  _277
REMARK   98  A    between atoms: _277  and  _278
REMARK   99  A    between atoms: _282  and  ZN_385
REMARK  100  A    between atoms: _283  and  _285
REMARK  101  A    between atoms: _285  and  _286
REMARK  102  A    between atoms: _285  and  _288
REMARK  103  A    between atoms: _288  and  _289
REMARK  104  A    between atoms: _292  and  _294
REMARK  105  A    between atoms: _294  and  _295
REMARK  106  A    between atoms: _297  and  _299
REMARK  107  A    between atoms: _299  and  _300
REMARK  108  A    between atoms: _299  and  _302
REMARK  109  A    between atoms: _302  and  _303
REMARK  110  A    between atoms: _306  and  _308
REMARK  111  A    between atoms: _308  and  _309
REMARK  112  A    between atoms: _308  and  _311
REMARK  113  A    between atoms: _311  and  _312
REMARK  114  A    between atoms: _315  and  _317
REMARK  115  A    between atoms: _317  and  _318
REMARK  116  A    between atoms: _321  and  _323
REMARK  117  A    between atoms: _323  and  _324
REMARK  118  A    between atoms: _323  and  _326
REMARK  119  A    between atoms: _326  and  _327
REMARK  120  A    between atoms: _332  and  _333
REMARK  121  A    between atoms: _335  and  _337
REMARK  122  A    between atoms: _337  and  _338
REMARK  123  A    between atoms: _337  and  _340
REMARK  124  A    between atoms: _340  and  _341
REMARK  125  A    between atoms: _344  and  _346
REMARK  126  A    between atoms: _346  and  _347
REMARK  127  A    between atoms: _346  and  _349
REMARK  128  A    between atoms: _349  and  _350
REMARK  129  A    between atoms: _350  and  _351
REMARK  130  A    between atoms: _354  and  _356
REMARK  131  A    between atoms: _356  and  _357
REMARK  132  A    between atoms: _356  and  _359
REMARK  133  A    between atoms: _359  and  _360
REMARK  134  A    between atoms: _360  and  _361
REMARK  135  A    between atoms: _361  and  _362
REMARK  136  A    between atoms: _371  and  _373
REMARK  137  A    between atoms: _373  and  _374
REMARK  138  A    between atoms: _376  and  _378
REMARK  139  A    between atoms: _378  and  _379
REMARK  140  A    between atoms: _378  and  _381
REMARK  141  A    between atoms: _381  and  _382
REMARK                            x       y       z     vdW  Elec       q    Type
REMARK                         _______ _______ _______ _____ _____    ______ ____
ROOT
ATOM      1  O   HOH     1      25.370  64.890   8.599  0.00  0.00    +0.000 OA
ENDROOT
TORSDOF 0
REMARK  Name = ../refined-set-2016/3d4y/3d4y_pocket.pdb
REMARK  141 active torsions:
REMARK  status: ('A' for Active; 'I' for Inactive)
REMARK    1  A    between atoms: _1  and  _3
REMARK    2  A    between atoms: _14  and  _17
REMARK    3  A    between atoms: _17  and  _18
REMARK    4  A    between atoms: _25  and  _26
REMARK    5  A    between atoms: _33  and  _34
REMARK    6  A    between atoms: _39  and  _41
REMARK    7  A    between atoms: _41  and  _42
REMARK    8  A    between atoms: _44  and  _46
REMARK    9  A    between atoms: _46  and  _47
REMARK   10  A    between atoms: _46  and  _49
REMARK   11  A    between atoms: _49  and  _50
REMARK   12  A    between atoms: _60  and  _62
REMARK   13  A    between atoms: _62  and  _63
REMARK   14  A    between atoms: _62  and  _65
REMARK   15  A    between atoms: _65  and  _66
REMARK   16  A    between atoms: _69  and  _71
REMARK   17  A    between atoms: _71  and  _72
REMARK   18  A    between atoms: _71  and  _74
REMARK   19  A    between atoms: _74  and  _75
REMARK   20  A    between atoms: _80  and  _81
REMARK   21  A    between atoms: _83  and  _85
REMARK   22  A    between atoms: _85  and  _86
REMARK   23  A    between atoms: _85  and  _88
REMARK   24  A    between atoms: _88  and  _89
REMARK   25  A    between atoms: _89  and  _90
REMARK   26  A    between atoms: _93  and  _95
REMARK   27  A    between atoms: _95  and  _96
REMARK   28  A    between atoms: _95  and  _98
REMARK   29  A    between atoms: _98  and  _99
REMARK   30  A    between atoms: _99  and  _100
REMARK   31  A    between atoms: _102  and  _104
REMARK   32  A    between atoms: _104  and  _105
REMARK   33  A    between atoms: _104  and  _107
REMARK   34  A    between atoms: _107  and  _108
REMARK   35  A    between atoms: _111  and  _113
REMARK   36  A    between atoms: _113  and  _114
REMARK   37  A    between atoms: _113  and  _116
REMARK   38  A    between atoms: _116  and  _117
REMARK   39  A    between atoms: _117  and  _119
REMARK   40  A    between atoms: _119  and  ZN_385
REMARK   41  A    between atoms: _121  and  _122
REMARK   42  A    between atoms: _127  and  _129
REMARK   43  A    between atoms: _129  and  _130
REMARK   44  A    between atoms: _129  and  _132
REMARK   45  A    between atoms: _132  and  _133
REMARK   46  A    between atoms: _139  and  _141
REMARK   47  A    between atoms: _141  and  _142
REMARK   48  A    between atoms: _141  and  _144
REMARK   49  A    between atoms: _144  and  _145
REMARK   50  A    between atoms: _145  and  _146
REMARK   51  A    between atoms: _146  and  _147
REMARK   52  A    between atoms: _156  and  _158
REMARK   53  A    between atoms: _158  and  _159
REMARK   54  A    between atoms: _158  and  _161
REMARK   55  A    between atoms: _161  and  _162
REMARK   56  A    between atoms: _167  and  _168
REMARK   57  A    between atoms: _170  and  _172
REMARK   58  A    between atoms: _172  and  _173
REMARK   59  A    between atoms: _172  and  _175
REMARK   60  A    between atoms: _175  and  _176
REMARK   61  A    between atoms: _178  and  _180
REMARK   62  A    between atoms: _180  and  _181
REMARK   63  A    between atoms: _180  and  _183
REMARK   64  A    between atoms: _183  and  _184
REMARK   65  A    between atoms: _189  and  _190
REMARK   66  A    between atoms: _192  and  _194
REMARK   67  A    between atoms: _194  and  _195
REMARK   68  A    between atoms: _194  and  _197
REMARK   69  A    between atoms: _197  and  _198
REMARK   70  A    between atoms: _201  and  _203
REMARK   71  A    between atoms: _203  and  _204
REMARK   72  A    between atoms: _203  and  _206
REMARK   73  A    between atoms: _206  and  _207
REMARK   74  A    between atoms: _210  and  _212
REMARK   75  A    between atoms: _212  and  _213
REMARK   76  A    between atoms: _212  and  _215
REMARK   77  A    between atoms: _215  and  _216
REMARK   78  A    between atoms: _222  and  _224
REMARK   79  A    between atoms: _224  and  _225
REMARK   80  A    between atoms: _224  and  _227
REMARK   81  A    between atoms: _227  and  _228
REMARK   82  A    between atoms: _233  and  _234
REMARK   83  A    between atoms: _236  and  _238
REMARK   84  A    between atoms: _238  and  _239
REMARK   85  A    between atoms: _238  and  _241
REMARK   86  A    between atoms: _241  and  _242
REMARK   87  A    between atoms: _245  and  _247
REMARK   88  A    between atoms: _247  and  _248
REMARK   89  A    between atoms: _247  and  _250
REMARK   90  A    between atoms: _250  and  _251
REMARK   91  A    between atoms: _261  and  _263
REMARK   92  A    between atoms: _263  and  _264
REMARK   93  A    between atoms: _263  and  _266
REMARK   94  A    between atoms: _266  and  _267
REMARK   95  A    between atoms: _272  and  _274
REMARK   96  A    between atoms: _274  and  _275
REMARK   97  A    between atoms: _274  and  _277
REMARK   98  A    between atoms: _277  and  _278
REMARK   99  A    between atoms: _282  and  ZN_385
REMARK  100  A    between atoms: _283  and  _285
REMARK  101  A    between atoms: _285  and  _286
REMARK  102  A    between atoms: _285  and  _288
REMARK  103  A    between atoms: _288  and  _289
REMARK  104  A    between atoms: _292  and  _294
REMARK  105  A    between atoms: _294  and  _295
REMARK  106  A    between atoms: _297  and  _299
REMARK  107  A    between atoms: _299  and  _300
REMARK  108  A    between atoms: _299  and  _302
REMARK  109  A    between atoms: _302  and  _303
REMARK  110  A    between atoms: _306  and  _308
REMARK  111  A    between atoms: _308  and  _309
REMARK  112  A    between atoms: _308  and  _311
REMARK  113  A    between atoms: _311  and  _312
REMARK  114  A    between atoms: _315  and  _317
REMARK  115  A    between atoms: _317  and  _318
REMARK  116  A    between atoms: _321  and  _323
REMARK  117  A    between atoms: _323  and  _324
REMARK  118  A    between atoms: _323  and  _326
REMARK  119  A    between atoms: _326  and  _327
REMARK  120  A    between atoms: _332  and  _333
REMARK  121  A    between atoms: _335  and  _337
REMARK  122  A    between atoms: _337  and  _338
REMARK  123  A    between atoms: _337  and  _340
REMARK  124  A    between atoms: _340  and  _341
REMARK  125  A    between atoms: _344  and  _346
REMARK  126  A    between atoms: _346  and  _347
REMARK  127  A    between atoms: _346  and  _349
REMARK  128  A    between atoms: _349  and  _350
REMARK  129  A    between atoms: _350  and  _351
REMARK  130  A    between atoms: _354  and  _356
REMARK  131  A    between atoms: _356  and  _357
REMARK  132  A    between atoms: _356  and  _359
REMARK  133  A    between atoms: _359  and  _360
REMARK  134  A    between atoms: _360  and  _361
REMARK  135  A    between atoms: _361  and  _362
REMARK  136  A    between atoms: _371  and  _373
REMARK  137  A    between atoms: _373  and  _374
REMARK  138  A    between atoms: _376  and  _378
REMARK  139  A    between atoms: _378  and  _379
REMARK  140  A    between atoms: _378  and  _381
REMARK  141  A    between atoms: _381  and  _382
REMARK                            x       y       z     vdW  Elec       q    Type
REMARK                         _______ _______ _______ _____ _____    ______ ____
ROOT
ATOM      1  O   HOH     1      23.898  66.603  10.495  0.00  0.00    +0.000 OA
ENDROOT
TORSDOF 0
REMARK  Name = ../refined-set-2016/3d4y/3d4y_pocket.pdb
REMARK  141 active torsions:
REMARK  status: ('A' for Active; 'I' for Inactive)
REMARK    1  A    between atoms: _1  and  _3
REMARK    2  A    between atoms: _14  and  _17
REMARK    3  A    between atoms: _17  and  _18
REMARK    4  A    between atoms: _25  and  _26
REMARK    5  A    between atoms: _33  and  _34
REMARK    6  A    between atoms: _39  and  _41
REMARK    7  A    between atoms: _41  and  _42
REMARK    8  A    between atoms: _44  and  _46
REMARK    9  A    between atoms: _46  and  _47
REMARK   10  A    between atoms: _46  and  _49
REMARK   11  A    between atoms: _49  and  _50
REMARK   12  A    between atoms: _60  and  _62
REMARK   13  A    between atoms: _62  and  _63
REMARK   14  A    between atoms: _62  and  _65
REMARK   15  A    between atoms: _65  and  _66
REMARK   16  A    between atoms: _69  and  _71
REMARK   17  A    between atoms: _71  and  _72
REMARK   18  A    between atoms: _71  and  _74
REMARK   19  A    between atoms: _74  and  _75
REMARK   20  A    between atoms: _80  and  _81
REMARK   21  A    between atoms: _83  and  _85
REMARK   22  A    between atoms: _85  and  _86
REMARK   23  A    between atoms: _85  and  _88
REMARK   24  A    between atoms: _88  and  _89
REMARK   25  A    between atoms: _89  and  _90
REMARK   26  A    between atoms: _93  and  _95
REMARK   27  A    between atoms: _95  and  _96
REMARK   28  A    between atoms: _95  and  _98
REMARK   29  A    between atoms: _98  and  _99
REMARK   30  A    between atoms: _99  and  _100
REMARK   31  A    between atoms: _102  and  _104
REMARK   32  A    between atoms: _104  and  _105
REMARK   33  A    between atoms: _104  and  _107
REMARK   34  A    between atoms: _107  and  _108
REMARK   35  A    between atoms: _111  and  _113
REMARK   36  A    between atoms: _113  and  _114
REMARK   37  A    between atoms: _113  and  _116
REMARK   38  A    between atoms: _116  and  _117
REMARK   39  A    between atoms: _117  and  _119
REMARK   40  A    between atoms: _119  and  ZN_385
REMARK   41  A    between atoms: _121  and  _122
REMARK   42  A    between atoms: _127  and  _129
REMARK   43  A    between atoms: _129  and  _130
REMARK   44  A    between atoms: _129  and  _132
REMARK   45  A    between atoms: _132  and  _133
REMARK   46  A    between atoms: _139  and  _141
REMARK   47  A    between atoms: _141  and  _142
REMARK   48  A    between atoms: _141  and  _144
REMARK   49  A    between atoms: _144  and  _145
REMARK   50  A    between atoms: _145  and  _146
REMARK   51  A    between atoms: _146  and  _147
REMARK   52  A    between atoms: _156  and  _158
REMARK   53  A    between atoms: _158  and  _159
REMARK   54  A    between atoms: _158  and  _161
REMARK   55  A    between atoms: _161  and  _162
REMARK   56  A    between atoms: _167  and  _168
REMARK   57  A    between atoms: _170  and  _172
REMARK   58  A    between atoms: _172  and  _173
REMARK   59  A    between atoms: _172  and  _175
REMARK   60  A    between atoms: _175  and  _176
REMARK   61  A    between atoms: _178  and  _180
REMARK   62  A    between atoms: _180  and  _181
REMARK   63  A    between atoms: _180  and  _183
REMARK   64  A    between atoms: _183  and  _184
REMARK   65  A    between atoms: _189  and  _190
REMARK   66  A    between atoms: _192  and  _194
REMARK   67  A    between atoms: _194  and  _195
REMARK   68  A    between atoms: _194  and  _197
REMARK   69  A    between atoms: _197  and  _198
REMARK   70  A    between atoms: _201  and  _203
REMARK   71  A    between atoms: _203  and  _204
REMARK   72  A    between atoms: _203  and  _206
REMARK   73  A    between atoms: _206  and  _207
REMARK   74  A    between atoms: _210  and  _212
REMARK   75  A    between atoms: _212  and  _213
REMARK   76  A    between atoms: _212  and  _215
REMARK   77  A    between atoms: _215  and  _216
REMARK   78  A    between atoms: _222  and  _224
REMARK   79  A    between atoms: _224  and  _225
REMARK   80  A    between atoms: _224  and  _227
REMARK   81  A    between atoms: _227  and  _228
REMARK   82  A    between atoms: _233  and  _234
REMARK   83  A    between atoms: _236  and  _238
REMARK   84  A    between atoms: _238  and  _239
REMARK   85  A    between atoms: _238  and  _241
REMARK   86  A    between atoms: _241  and  _242
REMARK   87  A    between atoms: _245  and  _247
REMARK   88  A    between atoms: _247  and  _248
REMARK   89  A    between atoms: _247  and  _250
REMARK   90  A    between atoms: _250  and  _251
REMARK   91  A    between atoms: _261  and  _263
REMARK   92  A    between atoms: _263  and  _264
REMARK   93  A    between atoms: _263  and  _266
REMARK   94  A    between atoms: _266  and  _267
REMARK   95  A    between atoms: _272  and  _274
REMARK   96  A    between atoms: _274  and  _275
REMARK   97  A    between atoms: _274  and  _277
REMARK   98  A    between atoms: _277  and  _278
REMARK   99  A    between atoms: _282  and  ZN_385
REMARK  100  A    between atoms: _283  and  _285
REMARK  101  A    between atoms: _285  and  _286
REMARK  102  A    between atoms: _285  and  _288
REMARK  103  A    between atoms: _288  and  _289
REMARK  104  A    between atoms: _292  and  _294
REMARK  105  A    between atoms: _294  and  _295
REMARK  106  A    between atoms: _297  and  _299
REMARK  107  A    between atoms: _299  and  _300
REMARK  108  A    between atoms: _299  and  _302
REMARK  109  A    between atoms: _302  and  _303
REMARK  110  A    between atoms: _306  and  _308
REMARK  111  A    between atoms: _308  and  _309
REMARK  112  A    between atoms: _308  and  _311
REMARK  113  A    between atoms: _311  and  _312
REMARK  114  A    between atoms: _315  and  _317
REMARK  115  A    between atoms: _317  and  _318
REMARK  116  A    between atoms: _321  and  _323
REMARK  117  A    between atoms: _323  and  _324
REMARK  118  A    between atoms: _323  and  _326
REMARK  119  A    between atoms: _326  and  _327
REMARK  120  A    between atoms: _332  and  _333
REMARK  121  A    between atoms: _335  and  _337
REMARK  122  A    between atoms: _337  and  _338
REMARK  123  A    between atoms: _337  and  _340
REMARK  124  A    between atoms: _340  and  _341
REMARK  125  A    between atoms: _344  and  _346
REMARK  126  A    between atoms: _346  and  _347
REMARK  127  A    between atoms: _346  and  _349
REMARK  128  A    between atoms: _349  and  _350
REMARK  129  A    between atoms: _350  and  _351
REMARK  130  A    between atoms: _354  and  _356
REMARK  131  A    between atoms: _356  and  _357
REMARK  132  A    between atoms: _356  and  _359
REMARK  133  A    between atoms: _359  and  _360
REMARK  134  A    between atoms: _360  and  _361
REMARK  135  A    between atoms: _361  and  _362
REMARK  136  A    between atoms: _371  and  _373
REMARK  137  A    between atoms: _373  and  _374
REMARK  138  A    between atoms: _376  and  _378
REMARK  139  A    between atoms: _378  and  _379
REMARK  140  A    between atoms: _378  and  _381
REMARK  141  A    between atoms: _381  and  _382
REMARK                            x       y       z     vdW  Elec       q    Type
REMARK                         _______ _______ _______ _____ _____    ______ ____
ROOT
ATOM      1  O   HOH     1      20.558  67.317   9.058  0.00  0.00    +0.000 OA
ENDROOT
TORSDOF 0
REMARK  Name = ../refined-set-2016/3d4y/3d4y_pocket.pdb
REMARK  141 active torsions:
REMARK  status: ('A' for Active; 'I' for Inactive)
REMARK    1  A    between atoms: _1  and  _3
REMARK    2  A    between atoms: _14  and  _17
REMARK    3  A    between atoms: _17  and  _18
REMARK    4  A    between atoms: _25  and  _26
REMARK    5  A    between atoms: _33  and  _34
REMARK    6  A    between atoms: _39  and  _41
REMARK    7  A    between atoms: _41  and  _42
REMARK    8  A    between atoms: _44  and  _46
REMARK    9  A    between atoms: _46  and  _47
REMARK   10  A    between atoms: _46  and  _49
REMARK   11  A    between atoms: _49  and  _50
REMARK   12  A    between atoms: _60  and  _62
REMARK   13  A    between atoms: _62  and  _63
REMARK   14  A    between atoms: _62  and  _65
REMARK   15  A    between atoms: _65  and  _66
REMARK   16  A    between atoms: _69  and  _71
REMARK   17  A    between atoms: _71  and  _72
REMARK   18  A    between atoms: _71  and  _74
REMARK   19  A    between atoms: _74  and  _75
REMARK   20  A    between atoms: _80  and  _81
REMARK   21  A    between atoms: _83  and  _85
REMARK   22  A    between atoms: _85  and  _86
REMARK   23  A    between atoms: _85  and  _88
REMARK   24  A    between atoms: _88  and  _89
REMARK   25  A    between atoms: _89  and  _90
REMARK   26  A    between atoms: _93  and  _95
REMARK   27  A    between atoms: _95  and  _96
REMARK   28  A    between atoms: _95  and  _98
REMARK   29  A    between atoms: _98  and  _99
REMARK   30  A    between atoms: _99  and  _100
REMARK   31  A    between atoms: _102  and  _104
REMARK   32  A    between atoms: _104  and  _105
REMARK   33  A    between atoms: _104  and  _107
REMARK   34  A    between atoms: _107  and  _108
REMARK   35  A    between atoms: _111  and  _113
REMARK   36  A    between atoms: _113  and  _114
REMARK   37  A    between atoms: _113  and  _116
REMARK   38  A    between atoms: _116  and  _117
REMARK   39  A    between atoms: _117  and  _119
REMARK   40  A    between atoms: _119  and  ZN_385
REMARK   41  A    between atoms: _121  and  _122
REMARK   42  A    between atoms: _127  and  _129
REMARK   43  A    between atoms: _129  and  _130
REMARK   44  A    between atoms: _129  and  _132
REMARK   45  A    between atoms: _132  and  _133
REMARK   46  A    between atoms: _139  and  _141
REMARK   47  A    between atoms: _141  and  _142
REMARK   48  A    between atoms: _141  and  _144
REMARK   49  A    between atoms: _144  and  _145
REMARK   50  A    between atoms: _145  and  _146
REMARK   51  A    between atoms: _146  and  _147
REMARK   52  A    between atoms: _156  and  _158
REMARK   53  A    between atoms: _158  and  _159
REMARK   54  A    between atoms: _158  and  _161
REMARK   55  A    between atoms: _161  and  _162
REMARK   56  A    between atoms: _167  and  _168
REMARK   57  A    between atoms: _170  and  _172
REMARK   58  A    between atoms: _172  and  _173
REMARK   59  A    between atoms: _172  and  _175
REMARK   60  A    between atoms: _175  and  _176
REMARK   61  A    between atoms: _178  and  _180
REMARK   62  A    between atoms: _180  and  _181
REMARK   63  A    between atoms: _180  and  _183
REMARK   64  A    between atoms: _183  and  _184
REMARK   65  A    between atoms: _189  and  _190
REMARK   66  A    between atoms: _192  and  _194
REMARK   67  A    between atoms: _194  and  _195
REMARK   68  A    between atoms: _194  and  _197
REMARK   69  A    between atoms: _197  and  _198
REMARK   70  A    between atoms: _201  and  _203
REMARK   71  A    between atoms: _203  and  _204
REMARK   72  A    between atoms: _203  and  _206
REMARK   73  A    between atoms: _206  and  _207
REMARK   74  A    between atoms: _210  and  _212
REMARK   75  A    between atoms: _212  and  _213
REMARK   76  A    between atoms: _212  and  _215
REMARK   77  A    between atoms: _215  and  _216
REMARK   78  A    between atoms: _222  and  _224
REMARK   79  A    between atoms: _224  and  _225
REMARK   80  A    between atoms: _224  and  _227
REMARK   81  A    between atoms: _227  and  _228
REMARK   82  A    between atoms: _233  and  _234
REMARK   83  A    between atoms: _236  and  _238
REMARK   84  A    between atoms: _238  and  _239
REMARK   85  A    between atoms: _238  and  _241
REMARK   86  A    between atoms: _241  and  _242
REMARK   87  A    between atoms: _245  and  _247
REMARK   88  A    between atoms: _247  and  _248
REMARK   89  A    between atoms: _247  and  _250
REMARK   90  A    between atoms: _250  and  _251
REMARK   91  A    between atoms: _261  and  _263
REMARK   92  A    between atoms: _263  and  _264
REMARK   93  A    between atoms: _263  and  _266
REMARK   94  A    between atoms: _266  and  _267
REMARK   95  A    between atoms: _272  and  _274
REMARK   96  A    between atoms: _274  and  _275
REMARK   97  A    between atoms: _274  and  _277
REMARK   98  A    between atoms: _277  and  _278
REMARK   99  A    between atoms: _282  and  ZN_385
REMARK  100  A    between atoms: _283  and  _285
REMARK  101  A    between atoms: _285  and  _286
REMARK  102  A    between atoms: _285  and  _288
REMARK  103  A    between atoms: _288  and  _289
REMARK  104  A    between atoms: _292  and  _294
REMARK  105  A    between atoms: _294  and  _295
REMARK  106  A    between atoms: _297  and  _299
REMARK  107  A    between atoms: _299  and  _300
REMARK  108  A    between atoms: _299  and  _302
REMARK  109  A    between atoms: _302  and  _303
REMARK  110  A    between atoms: _306  and  _308
REMARK  111  A    between atoms: _308  and  _309
REMARK  112  A    between atoms: _308  and  _311
REMARK  113  A    between atoms: _311  and  _312
REMARK  114  A    between atoms: _315  and  _317
REMARK  115  A    between atoms: _317  and  _318
REMARK  116  A    between atoms: _321  and  _323
REMARK  117  A    between atoms: _323  and  _324
REMARK  118  A    between atoms: _323  and  _326
REMARK  119  A    between atoms: _326  and  _327
REMARK  120  A    between atoms: _332  and  _333
REMARK  121  A    between atoms: _335  and  _337
REMARK  122  A    between atoms: _337  and  _338
REMARK  123  A    between atoms: _337  and  _340
REMARK  124  A    between atoms: _340  and  _341
REMARK  125  A    between atoms: _344  and  _346
REMARK  126  A    between atoms: _346  and  _347
REMARK  127  A    between atoms: _346  and  _349
REMARK  128  A    between atoms: _349  and  _350
REMARK  129  A    between atoms: _350  and  _351
REMARK  130  A    between atoms: _354  and  _356
REMARK  131  A    between atoms: _356  and  _357
REMARK  132  A    between atoms: _356  and  _359
REMARK  133  A    between atoms: _359  and  _360
REMARK  134  A    between atoms: _360  and  _361
REMARK  135  A    between atoms: _361  and  _362
REMARK  136  A    between atoms: _371  and  _373
REMARK  137  A    between atoms: _373  and  _374
REMARK  138  A    between atoms: _376  and  _378
REMARK  139  A    between atoms: _378  and  _379
REMARK  140  A    between atoms: _378  and  _381
REMARK  141  A    between atoms: _381  and  _382
REMARK                            x       y       z     vdW  Elec       q    Type
REMARK                         _______ _______ _______ _____ _____    ______ ____
ROOT
ATOM      1  O   HOH     1      20.588  64.708   8.188  0.00  0.00    +0.000 OA
ENDROOT
TORSDOF 0
REMARK  Name = ../refined-set-2016/3d4y/3d4y_pocket.pdb
REMARK  141 active torsions:
REMARK  status: ('A' for Active; 'I' for Inactive)
REMARK    1  A    between atoms: _1  and  _3
REMARK    2  A    between atoms: _14  and  _17
REMARK    3  A    between atoms: _17  and  _18
REMARK    4  A    between atoms: _25  and  _26
REMARK    5  A    between atoms: _33  and  _34
REMARK    6  A    between atoms: _39  and  _41
REMARK    7  A    between atoms: _41  and  _42
REMARK    8  A    between atoms: _44  and  _46
REMARK    9  A    between atoms: _46  and  _47
REMARK   10  A    between atoms: _46  and  _49
REMARK   11  A    between atoms: _49  and  _50
REMARK   12  A    between atoms: _60  and  _62
REMARK   13  A    between atoms: _62  and  _63
REMARK   14  A    between atoms: _62  and  _65
REMARK   15  A    between atoms: _65  and  _66
REMARK   16  A    between atoms: _69  and  _71
REMARK   17  A    between atoms: _71  and  _72
REMARK   18  A    between atoms: _71  and  _74
REMARK   19  A    between atoms: _74  and  _75
REMARK   20  A    between atoms: _80  and  _81
REMARK   21  A    between atoms: _83  and  _85
REMARK   22  A    between atoms: _85  and  _86
REMARK   23  A    between atoms: _85  and  _88
REMARK   24  A    between atoms: _88  and  _89
REMARK   25  A    between atoms: _89  and  _90
REMARK   26  A    between atoms: _93  and  _95
REMARK   27  A    between atoms: _95  and  _96
REMARK   28  A    between atoms: _95  and  _98
REMARK   29  A    between atoms: _98  and  _99
REMARK   30  A    between atoms: _99  and  _100
REMARK   31  A    between atoms: _102  and  _104
REMARK   32  A    between atoms: _104  and  _105
REMARK   33  A    between atoms: _104  and  _107
REMARK   34  A    between atoms: _107  and  _108
REMARK   35  A    between atoms: _111  and  _113
REMARK   36  A    between atoms: _113  and  _114
REMARK   37  A    between atoms: _113  and  _116
REMARK   38  A    between atoms: _116  and  _117
REMARK   39  A    between atoms: _117  and  _119
REMARK   40  A    between atoms: _119  and  ZN_385
REMARK   41  A    between atoms: _121  and  _122
REMARK   42  A    between atoms: _127  and  _129
REMARK   43  A    between atoms: _129  and  _130
REMARK   44  A    between atoms: _129  and  _132
REMARK   45  A    between atoms: _132  and  _133
REMARK   46  A    between atoms: _139  and  _141
REMARK   47  A    between atoms: _141  and  _142
REMARK   48  A    between atoms: _141  and  _144
REMARK   49  A    between atoms: _144  and  _145
REMARK   50  A    between atoms: _145  and  _146
REMARK   51  A    between atoms: _146  and  _147
REMARK   52  A    between atoms: _156  and  _158
REMARK   53  A    between atoms: _158  and  _159
REMARK   54  A    between atoms: _158  and  _161
REMARK   55  A    between atoms: _161  and  _162
REMARK   56  A    between atoms: _167  and  _168
REMARK   57  A    between atoms: _170  and  _172
REMARK   58  A    between atoms: _172  and  _173
REMARK   59  A    between atoms: _172  and  _175
REMARK   60  A    between atoms: _175  and  _176
REMARK   61  A    between atoms: _178  and  _180
REMARK   62  A    between atoms: _180  and  _181
REMARK   63  A    between atoms: _180  and  _183
REMARK   64  A    between atoms: _183  and  _184
REMARK   65  A    between atoms: _189  and  _190
REMARK   66  A    between atoms: _192  and  _194
REMARK   67  A    between atoms: _194  and  _195
REMARK   68  A    between atoms: _194  and  _197
REMARK   69  A    between atoms: _197  and  _198
REMARK   70  A    between atoms: _201  and  _203
REMARK   71  A    between atoms: _203  and  _204
REMARK   72  A    between atoms: _203  and  _206
REMARK   73  A    between atoms: _206  and  _207
REMARK   74  A    between atoms: _210  and  _212
REMARK   75  A    between atoms: _212  and  _213
REMARK   76  A    between atoms: _212  and  _215
REMARK   77  A    between atoms: _215  and  _216
REMARK   78  A    between atoms: _222  and  _224
REMARK   79  A    between atoms: _224  and  _225
REMARK   80  A    between atoms: _224  and  _227
REMARK   81  A    between atoms: _227  and  _228
REMARK   82  A    between atoms: _233  and  _234
REMARK   83  A    between atoms: _236  and  _238
REMARK   84  A    between atoms: _238  and  _239
REMARK   85  A    between atoms: _238  and  _241
REMARK   86  A    between atoms: _241  and  _242
REMARK   87  A    between atoms: _245  and  _247
REMARK   88  A    between atoms: _247  and  _248
REMARK   89  A    between atoms: _247  and  _250
REMARK   90  A    between atoms: _250  and  _251
REMARK   91  A    between atoms: _261  and  _263
REMARK   92  A    between atoms: _263  and  _264
REMARK   93  A    between atoms: _263  and  _266
REMARK   94  A    between atoms: _266  and  _267
REMARK   95  A    between atoms: _272  and  _274
REMARK   96  A    between atoms: _274  and  _275
REMARK   97  A    between atoms: _274  and  _277
REMARK   98  A    between atoms: _277  and  _278
REMARK   99  A    between atoms: _282  and  ZN_385
REMARK  100  A    between atoms: _283  and  _285
REMARK  101  A    between atoms: _285  and  _286
REMARK  102  A    between atoms: _285  and  _288
REMARK  103  A    between atoms: _288  and  _289
REMARK  104  A    between atoms: _292  and  _294
REMARK  105  A    between atoms: _294  and  _295
REMARK  106  A    between atoms: _297  and  _299
REMARK  107  A    between atoms: _299  and  _300
REMARK  108  A    between atoms: _299  and  _302
REMARK  109  A    between atoms: _302  and  _303
REMARK  110  A    between atoms: _306  and  _308
REMARK  111  A    between atoms: _308  and  _309
REMARK  112  A    between atoms: _308  and  _311
REMARK  113  A    between atoms: _311  and  _312
REMARK  114  A    between atoms: _315  and  _317
REMARK  115  A    between atoms: _317  and  _318
REMARK  116  A    between atoms: _321  and  _323
REMARK  117  A    between atoms: _323  and  _324
REMARK  118  A    between atoms: _323  and  _326
REMARK  119  A    between atoms: _326  and  _327
REMARK  120  A    between atoms: _332  and  _333
REMARK  121  A    between atoms: _335  and  _337
REMARK  122  A    between atoms: _337  and  _338
REMARK  123  A    between atoms: _337  and  _340
REMARK  124  A    between atoms: _340  and  _341
REMARK  125  A    between atoms: _344  and  _346
REMARK  126  A    between atoms: _346  and  _347
REMARK  127  A    between atoms: _346  and  _349
REMARK  128  A    between atoms: _349  and  _350
REMARK  129  A    between atoms: _350  and  _351
REMARK  130  A    between atoms: _354  and  _356
REMARK  131  A    between atoms: _356  and  _357
REMARK  132  A    between atoms: _356  and  _359
REMARK  133  A    between atoms: _359  and  _360
REMARK  134  A    between atoms: _360  and  _361
REMARK  135  A    between atoms: _361  and  _362
REMARK  136  A    between atoms: _371  and  _373
REMARK  137  A    between atoms: _373  and  _374
REMARK  138  A    between atoms: _376  and  _378
REMARK  139  A    between atoms: _378  and  _379
REMARK  140  A    between atoms: _378  and  _381
REMARK  141  A    between atoms: _381  and  _382
REMARK                            x       y       z     vdW  Elec       q    Type
REMARK                         _______ _______ _______ _____ _____    ______ ____
ROOT
ATOM      1  O   HOH     1      23.256  61.294  14.362  0.00  0.00    +0.000 OA
ENDROOT
TORSDOF 0
REMARK  Name = ../refined-set-2016/3d4y/3d4y_pocket.pdb
REMARK  141 active torsions:
REMARK  status: ('A' for Active; 'I' for Inactive)
REMARK    1  A    between atoms: _1  and  _3
REMARK    2  A    between atoms: _14  and  _17
REMARK    3  A    between atoms: _17  and  _18
REMARK    4  A    between atoms: _25  and  _26
REMARK    5  A    between atoms: _33  and  _34
REMARK    6  A    between atoms: _39  and  _41
REMARK    7  A    between atoms: _41  and  _42
REMARK    8  A    between atoms: _44  and  _46
REMARK    9  A    between atoms: _46  and  _47
REMARK   10  A    between atoms: _46  and  _49
REMARK   11  A    between atoms: _49  and  _50
REMARK   12  A    between atoms: _60  and  _62
REMARK   13  A    between atoms: _62  and  _63
REMARK   14  A    between atoms: _62  and  _65
REMARK   15  A    between atoms: _65  and  _66
REMARK   16  A    between atoms: _69  and  _71
REMARK   17  A    between atoms: _71  and  _72
REMARK   18  A    between atoms: _71  and  _74
REMARK   19  A    between atoms: _74  and  _75
REMARK   20  A    between atoms: _80  and  _81
REMARK   21  A    between atoms: _83  and  _85
REMARK   22  A    between atoms: _85  and  _86
REMARK   23  A    between atoms: _85  and  _88
REMARK   24  A    between atoms: _88  and  _89
REMARK   25  A    between atoms: _89  and  _90
REMARK   26  A    between atoms: _93  and  _95
REMARK   27  A    between atoms: _95  and  _96
REMARK   28  A    between atoms: _95  and  _98
REMARK   29  A    between atoms: _98  and  _99
REMARK   30  A    between atoms: _99  and  _100
REMARK   31  A    between atoms: _102  and  _104
REMARK   32  A    between atoms: _104  and  _105
REMARK   33  A    between atoms: _104  and  _107
REMARK   34  A    between atoms: _107  and  _108
REMARK   35  A    between atoms: _111  and  _113
REMARK   36  A    between atoms: _113  and  _114
REMARK   37  A    between atoms: _113  and  _116
REMARK   38  A    between atoms: _116  and  _117
REMARK   39  A    between atoms: _117  and  _119
REMARK   40  A    between atoms: _119  and  ZN_385
REMARK   41  A    between atoms: _121  and  _122
REMARK   42  A    between atoms: _127  and  _129
REMARK   43  A    between atoms: _129  and  _130
REMARK   44  A    between atoms: _129  and  _132
REMARK   45  A    between atoms: _132  and  _133
REMARK   46  A    between atoms: _139  and  _141
REMARK   47  A    between atoms: _141  and  _142
REMARK   48  A    between atoms: _141  and  _144
REMARK   49  A    between atoms: _144  and  _145
REMARK   50  A    between atoms: _145  and  _146
REMARK   51  A    between atoms: _146  and  _147
REMARK   52  A    between atoms: _156  and  _158
REMARK   53  A    between atoms: _158  and  _159
REMARK   54  A    between atoms: _158  and  _161
REMARK   55  A    between atoms: _161  and  _162
REMARK   56  A    between atoms: _167  and  _168
REMARK   57  A    between atoms: _170  and  _172
REMARK   58  A    between atoms: _172  and  _173
REMARK   59  A    between atoms: _172  and  _175
REMARK   60  A    between atoms: _175  and  _176
REMARK   61  A    between atoms: _178  and  _180
REMARK   62  A    between atoms: _180  and  _181
REMARK   63  A    between atoms: _180  and  _183
REMARK   64  A    between atoms: _183  and  _184
REMARK   65  A    between atoms: _189  and  _190
REMARK   66  A    between atoms: _192  and  _194
REMARK   67  A    between atoms: _194  and  _195
REMARK   68  A    between atoms: _194  and  _197
REMARK   69  A    between atoms: _197  and  _198
REMARK   70  A    between atoms: _201  and  _203
REMARK   71  A    between atoms: _203  and  _204
REMARK   72  A    between atoms: _203  and  _206
REMARK   73  A    between atoms: _206  and  _207
REMARK   74  A    between atoms: _210  and  _212
REMARK   75  A    between atoms: _212  and  _213
REMARK   76  A    between atoms: _212  and  _215
REMARK   77  A    between atoms: _215  and  _216
REMARK   78  A    between atoms: _222  and  _224
REMARK   79  A    between atoms: _224  and  _225
REMARK   80  A    between atoms: _224  and  _227
REMARK   81  A    between atoms: _227  and  _228
REMARK   82  A    between atoms: _233  and  _234
REMARK   83  A    between atoms: _236  and  _238
REMARK   84  A    between atoms: _238  and  _239
REMARK   85  A    between atoms: _238  and  _241
REMARK   86  A    between atoms: _241  and  _242
REMARK   87  A    between atoms: _245  and  _247
REMARK   88  A    between atoms: _247  and  _248
REMARK   89  A    between atoms: _247  and  _250
REMARK   90  A    between atoms: _250  and  _251
REMARK   91  A    between atoms: _261  and  _263
REMARK   92  A    between atoms: _263  and  _264
REMARK   93  A    between atoms: _263  and  _266
REMARK   94  A    between atoms: _266  and  _267
REMARK   95  A    between atoms: _272  and  _274
REMARK   96  A    between atoms: _274  and  _275
REMARK   97  A    between atoms: _274  and  _277
REMARK   98  A    between atoms: _277  and  _278
REMARK   99  A    between atoms: _282  and  ZN_385
REMARK  100  A    between atoms: _283  and  _285
REMARK  101  A    between atoms: _285  and  _286
REMARK  102  A    between atoms: _285  and  _288
REMARK  103  A    between atoms: _288  and  _289
REMARK  104  A    between atoms: _292  and  _294
REMARK  105  A    between atoms: _294  and  _295
REMARK  106  A    between atoms: _297  and  _299
REMARK  107  A    between atoms: _299  and  _300
REMARK  108  A    between atoms: _299  and  _302
REMARK  109  A    between atoms: _302  and  _303
REMARK  110  A    between atoms: _306  and  _308
REMARK  111  A    between atoms: _308  and  _309
REMARK  112  A    between atoms: _308  and  _311
REMARK  113  A    between atoms: _311  and  _312
REMARK  114  A    between atoms: _315  and  _317
REMARK  115  A    between atoms: _317  and  _318
REMARK  116  A    between atoms: _321  and  _323
REMARK  117  A    between atoms: _323  and  _324
REMARK  118  A    between atoms: _323  and  _326
REMARK  119  A    between atoms: _326  and  _327
REMARK  120  A    between atoms: _332  and  _333
REMARK  121  A    between atoms: _335  and  _337
REMARK  122  A    between atoms: _337  and  _338
REMARK  123  A    between atoms: _337  and  _340
REMARK  124  A    between atoms: _340  and  _341
REMARK  125  A    between atoms: _344  and  _346
REMARK  126  A    between atoms: _346  and  _347
REMARK  127  A    between atoms: _346  and  _349
REMARK  128  A    between atoms: _349  and  _350
REMARK  129  A    between atoms: _350  and  _351
REMARK  130  A    between atoms: _354  and  _356
REMARK  131  A    between atoms: _356  and  _357
REMARK  132  A    between atoms: _356  and  _359
REMARK  133  A    between atoms: _359  and  _360
REMARK  134  A    between atoms: _360  and  _361
REMARK  135  A    between atoms: _361  and  _362
REMARK  136  A    between atoms: _371  and  _373
REMARK  137  A    between atoms: _373  and  _374
REMARK  138  A    between atoms: _376  and  _378
REMARK  139  A    between atoms: _378  and  _379
REMARK  140  A    between atoms: _378  and  _381
REMARK  141  A    between atoms: _381  and  _382
REMARK                            x       y       z     vdW  Elec       q    Type
REMARK                         _______ _______ _______ _____ _____    ______ ____
ROOT
ATOM      1  O   HOH     1      25.362  65.127  17.589  0.00  0.00    +0.000 OA
ENDROOT
TORSDOF 0
REMARK  Name = ../refined-set-2016/3d4y/3d4y_pocket.pdb
REMARK  141 active torsions:
REMARK  status: ('A' for Active; 'I' for Inactive)
REMARK    1  A    between atoms: _1  and  _3
REMARK    2  A    between atoms: _14  and  _17
REMARK    3  A    between atoms: _17  and  _18
REMARK    4  A    between atoms: _25  and  _26
REMARK    5  A    between atoms: _33  and  _34
REMARK    6  A    between atoms: _39  and  _41
REMARK    7  A    between atoms: _41  and  _42
REMARK    8  A    between atoms: _44  and  _46
REMARK    9  A    between atoms: _46  and  _47
REMARK   10  A    between atoms: _46  and  _49
REMARK   11  A    between atoms: _49  and  _50
REMARK   12  A    between atoms: _60  and  _62
REMARK   13  A    between atoms: _62  and  _63
REMARK   14  A    between atoms: _62  and  _65
REMARK   15  A    between atoms: _65  and  _66
REMARK   16  A    between atoms: _69  and  _71
REMARK   17  A    between atoms: _71  and  _72
REMARK   18  A    between atoms: _71  and  _74
REMARK   19  A    between atoms: _74  and  _75
REMARK   20  A    between atoms: _80  and  _81
REMARK   21  A    between atoms: _83  and  _85
REMARK   22  A    between atoms: _85  and  _86
REMARK   23  A    between atoms: _85  and  _88
REMARK   24  A    between atoms: _88  and  _89
REMARK   25  A    between atoms: _89  and  _90
REMARK   26  A    between atoms: _93  and  _95
REMARK   27  A    between atoms: _95  and  _96
REMARK   28  A    between atoms: _95  and  _98
REMARK   29  A    between atoms: _98  and  _99
REMARK   30  A    between atoms: _99  and  _100
REMARK   31  A    between atoms: _102  and  _104
REMARK   32  A    between atoms: _104  and  _105
REMARK   33  A    between atoms: _104  and  _107
REMARK   34  A    between atoms: _107  and  _108
REMARK   35  A    between atoms: _111  and  _113
REMARK   36  A    between atoms: _113  and  _114
REMARK   37  A    between atoms: _113  and  _116
REMARK   38  A    between atoms: _116  and  _117
REMARK   39  A    between atoms: _117  and  _119
REMARK   40  A    between atoms: _119  and  ZN_385
REMARK   41  A    between atoms: _121  and  _122
REMARK   42  A    between atoms: _127  and  _129
REMARK   43  A    between atoms: _129  and  _130
REMARK   44  A    between atoms: _129  and  _132
REMARK   45  A    between atoms: _132  and  _133
REMARK   46  A    between atoms: _139  and  _141
REMARK   47  A    between atoms: _141  and  _142
REMARK   48  A    between atoms: _141  and  _144
REMARK   49  A    between atoms: _144  and  _145
REMARK   50  A    between atoms: _145  and  _146
REMARK   51  A    between atoms: _146  and  _147
REMARK   52  A    between atoms: _156  and  _158
REMARK   53  A    between atoms: _158  and  _159
REMARK   54  A    between atoms: _158  and  _161
REMARK   55  A    between atoms: _161  and  _162
REMARK   56  A    between atoms: _167  and  _168
REMARK   57  A    between atoms: _170  and  _172
REMARK   58  A    between atoms: _172  and  _173
REMARK   59  A    between atoms: _172  and  _175
REMARK   60  A    between atoms: _175  and  _176
REMARK   61  A    between atoms: _178  and  _180
REMARK   62  A    between atoms: _180  and  _181
REMARK   63  A    between atoms: _180  and  _183
REMARK   64  A    between atoms: _183  and  _184
REMARK   65  A    between atoms: _189  and  _190
REMARK   66  A    between atoms: _192  and  _194
REMARK   67  A    between atoms: _194  and  _195
REMARK   68  A    between atoms: _194  and  _197
REMARK   69  A    between atoms: _197  and  _198
REMARK   70  A    between atoms: _201  and  _203
REMARK   71  A    between atoms: _203  and  _204
REMARK   72  A    between atoms: _203  and  _206
REMARK   73  A    between atoms: _206  and  _207
REMARK   74  A    between atoms: _210  and  _212
REMARK   75  A    between atoms: _212  and  _213
REMARK   76  A    between atoms: _212  and  _215
REMARK   77  A    between atoms: _215  and  _216
REMARK   78  A    between atoms: _222  and  _224
REMARK   79  A    between atoms: _224  and  _225
REMARK   80  A    between atoms: _224  and  _227
REMARK   81  A    between atoms: _227  and  _228
REMARK   82  A    between atoms: _233  and  _234
REMARK   83  A    between atoms: _236  and  _238
REMARK   84  A    between atoms: _238  and  _239
REMARK   85  A    between atoms: _238  and  _241
REMARK   86  A    between atoms: _241  and  _242
REMARK   87  A    between atoms: _245  and  _247
REMARK   88  A    between atoms: _247  and  _248
REMARK   89  A    between atoms: _247  and  _250
REMARK   90  A    between atoms: _250  and  _251
REMARK   91  A    between atoms: _261  and  _263
REMARK   92  A    between atoms: _263  and  _264
REMARK   93  A    between atoms: _263  and  _266
REMARK   94  A    between atoms: _266  and  _267
REMARK   95  A    between atoms: _272  and  _274
REMARK   96  A    between atoms: _274  and  _275
REMARK   97  A    between atoms: _274  and  _277
REMARK   98  A    between atoms: _277  and  _278
REMARK   99  A    between atoms: _282  and  ZN_385
REMARK  100  A    between atoms: _283  and  _285
REMARK  101  A    between atoms: _285  and  _286
REMARK  102  A    between atoms: _285  and  _288
REMARK  103  A    between atoms: _288  and  _289
REMARK  104  A    between atoms: _292  and  _294
REMARK  105  A    between atoms: _294  and  _295
REMARK  106  A    between atoms: _297  and  _299
REMARK  107  A    between atoms: _299  and  _300
REMARK  108  A    between atoms: _299  and  _302
REMARK  109  A    between atoms: _302  and  _303
REMARK  110  A    between atoms: _306  and  _308
REMARK  111  A    between atoms: _308  and  _309
REMARK  112  A    between atoms: _308  and  _311
REMARK  113  A    between atoms: _311  and  _312
REMARK  114  A    between atoms: _315  and  _317
REMARK  115  A    between atoms: _317  and  _318
REMARK  116  A    between atoms: _321  and  _323
REMARK  117  A    between atoms: _323  and  _324
REMARK  118  A    between atoms: _323  and  _326
REMARK  119  A    between atoms: _326  and  _327
REMARK  120  A    between atoms: _332  and  _333
REMARK  121  A    between atoms: _335  and  _337
REMARK  122  A    between atoms: _337  and  _338
REMARK  123  A    between atoms: _337  and  _340
REMARK  124  A    between atoms: _340  and  _341
REMARK  125  A    between atoms: _344  and  _346
REMARK  126  A    between atoms: _346  and  _347
REMARK  127  A    between atoms: _346  and  _349
REMARK  128  A    between atoms: _349  and  _350
REMARK  129  A    between atoms: _350  and  _351
REMARK  130  A    between atoms: _354  and  _356
REMARK  131  A    between atoms: _356  and  _357
REMARK  132  A    between atoms: _356  and  _359
REMARK  133  A    between atoms: _359  and  _360
REMARK  134  A    between atoms: _360  and  _361
REMARK  135  A    between atoms: _361  and  _362
REMARK  136  A    between atoms: _371  and  _373
REMARK  137  A    between atoms: _373  and  _374
REMARK  138  A    between atoms: _376  and  _378
REMARK  139  A    between atoms: _378  and  _379
REMARK  140  A    between atoms: _378  and  _381
REMARK  141  A    between atoms: _381  and  _382
REMARK                            x       y       z     vdW  Elec       q    Type
REMARK                         _______ _______ _______ _____ _____    ______ ____
ROOT
ATOM      1  O   HOH     1      26.371  62.932  17.248  0.00  0.00    +0.000 OA
ENDROOT
TORSDOF 0
REMARK  Name = ../refined-set-2016/3d4y/3d4y_pocket.pdb
REMARK  141 active torsions:
REMARK  status: ('A' for Active; 'I' for Inactive)
REMARK    1  A    between atoms: _1  and  _3
REMARK    2  A    between atoms: _14  and  _17
REMARK    3  A    between atoms: _17  and  _18
REMARK    4  A    between atoms: _25  and  _26
REMARK    5  A    between atoms: _33  and  _34
REMARK    6  A    between atoms: _39  and  _41
REMARK    7  A    between atoms: _41  and  _42
REMARK    8  A    between atoms: _44  and  _46
REMARK    9  A    between atoms: _46  and  _47
REMARK   10  A    between atoms: _46  and  _49
REMARK   11  A    between atoms: _49  and  _50
REMARK   12  A    between atoms: _60  and  _62
REMARK   13  A    between atoms: _62  and  _63
REMARK   14  A    between atoms: _62  and  _65
REMARK   15  A    between atoms: _65  and  _66
REMARK   16  A    between atoms: _69  and  _71
REMARK   17  A    between atoms: _71  and  _72
REMARK   18  A    between atoms: _71  and  _74
REMARK   19  A    between atoms: _74  and  _75
REMARK   20  A    between atoms: _80  and  _81
REMARK   21  A    between atoms: _83  and  _85
REMARK   22  A    between atoms: _85  and  _86
REMARK   23  A    between atoms: _85  and  _88
REMARK   24  A    between atoms: _88  and  _89
REMARK   25  A    between atoms: _89  and  _90
REMARK   26  A    between atoms: _93  and  _95
REMARK   27  A    between atoms: _95  and  _96
REMARK   28  A    between atoms: _95  and  _98
REMARK   29  A    between atoms: _98  and  _99
REMARK   30  A    between atoms: _99  and  _100
REMARK   31  A    between atoms: _102  and  _104
REMARK   32  A    between atoms: _104  and  _105
REMARK   33  A    between atoms: _104  and  _107
REMARK   34  A    between atoms: _107  and  _108
REMARK   35  A    between atoms: _111  and  _113
REMARK   36  A    between atoms: _113  and  _114
REMARK   37  A    between atoms: _113  and  _116
REMARK   38  A    between atoms: _116  and  _117
REMARK   39  A    between atoms: _117  and  _119
REMARK   40  A    between atoms: _119  and  ZN_385
REMARK   41  A    between atoms: _121  and  _122
REMARK   42  A    between atoms: _127  and  _129
REMARK   43  A    between atoms: _129  and  _130
REMARK   44  A    between atoms: _129  and  _132
REMARK   45  A    between atoms: _132  and  _133
REMARK   46  A    between atoms: _139  and  _141
REMARK   47  A    between atoms: _141  and  _142
REMARK   48  A    between atoms: _141  and  _144
REMARK   49  A    between atoms: _144  and  _145
REMARK   50  A    between atoms: _145  and  _146
REMARK   51  A    between atoms: _146  and  _147
REMARK   52  A    between atoms: _156  and  _158
REMARK   53  A    between atoms: _158  and  _159
REMARK   54  A    between atoms: _158  and  _161
REMARK   55  A    between atoms: _161  and  _162
REMARK   56  A    between atoms: _167  and  _168
REMARK   57  A    between atoms: _170  and  _172
REMARK   58  A    between atoms: _172  and  _173
REMARK   59  A    between atoms: _172  and  _175
REMARK   60  A    between atoms: _175  and  _176
REMARK   61  A    between atoms: _178  and  _180
REMARK   62  A    between atoms: _180  and  _181
REMARK   63  A    between atoms: _180  and  _183
REMARK   64  A    between atoms: _183  and  _184
REMARK   65  A    between atoms: _189  and  _190
REMARK   66  A    between atoms: _192  and  _194
REMARK   67  A    between atoms: _194  and  _195
REMARK   68  A    between atoms: _194  and  _197
REMARK   69  A    between atoms: _197  and  _198
REMARK   70  A    between atoms: _201  and  _203
REMARK   71  A    between atoms: _203  and  _204
REMARK   72  A    between atoms: _203  and  _206
REMARK   73  A    between atoms: _206  and  _207
REMARK   74  A    between atoms: _210  and  _212
REMARK   75  A    between atoms: _212  and  _213
REMARK   76  A    between atoms: _212  and  _215
REMARK   77  A    between atoms: _215  and  _216
REMARK   78  A    between atoms: _222  and  _224
REMARK   79  A    between atoms: _224  and  _225
REMARK   80  A    between atoms: _224  and  _227
REMARK   81  A    between atoms: _227  and  _228
REMARK   82  A    between atoms: _233  and  _234
REMARK   83  A    between atoms: _236  and  _238
REMARK   84  A    between atoms: _238  and  _239
REMARK   85  A    between atoms: _238  and  _241
REMARK   86  A    between atoms: _241  and  _242
REMARK   87  A    between atoms: _245  and  _247
REMARK   88  A    between atoms: _247  and  _248
REMARK   89  A    between atoms: _247  and  _250
REMARK   90  A    between atoms: _250  and  _251
REMARK   91  A    between atoms: _261  and  _263
REMARK   92  A    between atoms: _263  and  _264
REMARK   93  A    between atoms: _263  and  _266
REMARK   94  A    between atoms: _266  and  _267
REMARK   95  A    between atoms: _272  and  _274
REMARK   96  A    between atoms: _274  and  _275
REMARK   97  A    between atoms: _274  and  _277
REMARK   98  A    between atoms: _277  and  _278
REMARK   99  A    between atoms: _282  and  ZN_385
REMARK  100  A    between atoms: _283  and  _285
REMARK  101  A    between atoms: _285  and  _286
REMARK  102  A    between atoms: _285  and  _288
REMARK  103  A    between atoms: _288  and  _289
REMARK  104  A    between atoms: _292  and  _294
REMARK  105  A    between atoms: _294  and  _295
REMARK  106  A    between atoms: _297  and  _299
REMARK  107  A    between atoms: _299  and  _300
REMARK  108  A    between atoms: _299  and  _302
REMARK  109  A    between atoms: _302  and  _303
REMARK  110  A    between atoms: _306  and  _308
REMARK  111  A    between atoms: _308  and  _309
REMARK  112  A    between atoms: _308  and  _311
REMARK  113  A    between atoms: _311  and  _312
REMARK  114  A    between atoms: _315  and  _317
REMARK  115  A    between atoms: _317  and  _318
REMARK  116  A    between atoms: _321  and  _323
REMARK  117  A    between atoms: _323  and  _324
REMARK  118  A    between atoms: _323  and  _326
REMARK  119  A    between atoms: _326  and  _327
REMARK  120  A    between atoms: _332  and  _333
REMARK  121  A    between atoms: _335  and  _337
REMARK  122  A    between atoms: _337  and  _338
REMARK  123  A    between atoms: _337  and  _340
REMARK  124  A    between atoms: _340  and  _341
REMARK  125  A    between atoms: _344  and  _346
REMARK  126  A    between atoms: _346  and  _347
REMARK  127  A    between atoms: _346  and  _349
REMARK  128  A    between atoms: _349  and  _350
REMARK  129  A    between atoms: _350  and  _351
REMARK  130  A    between atoms: _354  and  _356
REMARK  131  A    between atoms: _356  and  _357
REMARK  132  A    between atoms: _356  and  _359
REMARK  133  A    between atoms: _359  and  _360
REMARK  134  A    between atoms: _360  and  _361
REMARK  135  A    between atoms: _361  and  _362
REMARK  136  A    between atoms: _371  and  _373
REMARK  137  A    between atoms: _373  and  _374
REMARK  138  A    between atoms: _376  and  _378
REMARK  139  A    between atoms: _378  and  _379
REMARK  140  A    between atoms: _378  and  _381
REMARK  141  A    between atoms: _381  and  _382
REMARK                            x       y       z     vdW  Elec       q    Type
REMARK                         _______ _______ _______ _____ _____    ______ ____
ROOT
ATOM      1  O   HOH     1      29.731  66.161  18.731  0.00  0.00    +0.000 OA
ENDROOT
TORSDOF 0
REMARK  Name = ../refined-set-2016/3d4y/3d4y_pocket.pdb
REMARK  141 active torsions:
REMARK  status: ('A' for Active; 'I' for Inactive)
REMARK    1  A    between atoms: _1  and  _3
REMARK    2  A    between atoms: _14  and  _17
REMARK    3  A    between atoms: _17  and  _18
REMARK    4  A    between atoms: _25  and  _26
REMARK    5  A    between atoms: _33  and  _34
REMARK    6  A    between atoms: _39  and  _41
REMARK    7  A    between atoms: _41  and  _42
REMARK    8  A    between atoms: _44  and  _46
REMARK    9  A    between atoms: _46  and  _47
REMARK   10  A    between atoms: _46  and  _49
REMARK   11  A    between atoms: _49  and  _50
REMARK   12  A    between atoms: _60  and  _62
REMARK   13  A    between atoms: _62  and  _63
REMARK   14  A    between atoms: _62  and  _65
REMARK   15  A    between atoms: _65  and  _66
REMARK   16  A    between atoms: _69  and  _71
REMARK   17  A    between atoms: _71  and  _72
REMARK   18  A    between atoms: _71  and  _74
REMARK   19  A    between atoms: _74  and  _75
REMARK   20  A    between atoms: _80  and  _81
REMARK   21  A    between atoms: _83  and  _85
REMARK   22  A    between atoms: _85  and  _86
REMARK   23  A    between atoms: _85  and  _88
REMARK   24  A    between atoms: _88  and  _89
REMARK   25  A    between atoms: _89  and  _90
REMARK   26  A    between atoms: _93  and  _95
REMARK   27  A    between atoms: _95  and  _96
REMARK   28  A    between atoms: _95  and  _98
REMARK   29  A    between atoms: _98  and  _99
REMARK   30  A    between atoms: _99  and  _100
REMARK   31  A    between atoms: _102  and  _104
REMARK   32  A    between atoms: _104  and  _105
REMARK   33  A    between atoms: _104  and  _107
REMARK   34  A    between atoms: _107  and  _108
REMARK   35  A    between atoms: _111  and  _113
REMARK   36  A    between atoms: _113  and  _114
REMARK   37  A    between atoms: _113  and  _116
REMARK   38  A    between atoms: _116  and  _117
REMARK   39  A    between atoms: _117  and  _119
REMARK   40  A    between atoms: _119  and  ZN_385
REMARK   41  A    between atoms: _121  and  _122
REMARK   42  A    between atoms: _127  and  _129
REMARK   43  A    between atoms: _129  and  _130
REMARK   44  A    between atoms: _129  and  _132
REMARK   45  A    between atoms: _132  and  _133
REMARK   46  A    between atoms: _139  and  _141
REMARK   47  A    between atoms: _141  and  _142
REMARK   48  A    between atoms: _141  and  _144
REMARK   49  A    between atoms: _144  and  _145
REMARK   50  A    between atoms: _145  and  _146
REMARK   51  A    between atoms: _146  and  _147
REMARK   52  A    between atoms: _156  and  _158
REMARK   53  A    between atoms: _158  and  _159
REMARK   54  A    between atoms: _158  and  _161
REMARK   55  A    between atoms: _161  and  _162
REMARK   56  A    between atoms: _167  and  _168
REMARK   57  A    between atoms: _170  and  _172
REMARK   58  A    between atoms: _172  and  _173
REMARK   59  A    between atoms: _172  and  _175
REMARK   60  A    between atoms: _175  and  _176
REMARK   61  A    between atoms: _178  and  _180
REMARK   62  A    between atoms: _180  and  _181
REMARK   63  A    between atoms: _180  and  _183
REMARK   64  A    between atoms: _183  and  _184
REMARK   65  A    between atoms: _189  and  _190
REMARK   66  A    between atoms: _192  and  _194
REMARK   67  A    between atoms: _194  and  _195
REMARK   68  A    between atoms: _194  and  _197
REMARK   69  A    between atoms: _197  and  _198
REMARK   70  A    between atoms: _201  and  _203
REMARK   71  A    between atoms: _203  and  _204
REMARK   72  A    between atoms: _203  and  _206
REMARK   73  A    between atoms: _206  and  _207
REMARK   74  A    between atoms: _210  and  _212
REMARK   75  A    between atoms: _212  and  _213
REMARK   76  A    between atoms: _212  and  _215
REMARK   77  A    between atoms: _215  and  _216
REMARK   78  A    between atoms: _222  and  _224
REMARK   79  A    between atoms: _224  and  _225
REMARK   80  A    between atoms: _224  and  _227
REMARK   81  A    between atoms: _227  and  _228
REMARK   82  A    between atoms: _233  and  _234
REMARK   83  A    between atoms: _236  and  _238
REMARK   84  A    between atoms: _238  and  _239
REMARK   85  A    between atoms: _238  and  _241
REMARK   86  A    between atoms: _241  and  _242
REMARK   87  A    between atoms: _245  and  _247
REMARK   88  A    between atoms: _247  and  _248
REMARK   89  A    between atoms: _247  and  _250
REMARK   90  A    between atoms: _250  and  _251
REMARK   91  A    between atoms: _261  and  _263
REMARK   92  A    between atoms: _263  and  _264
REMARK   93  A    between atoms: _263  and  _266
REMARK   94  A    between atoms: _266  and  _267
REMARK   95  A    between atoms: _272  and  _274
REMARK   96  A    between atoms: _274  and  _275
REMARK   97  A    between atoms: _274  and  _277
REMARK   98  A    between atoms: _277  and  _278
REMARK   99  A    between atoms: _282  and  ZN_385
REMARK  100  A    between atoms: _283  and  _285
REMARK  101  A    between atoms: _285  and  _286
REMARK  102  A    between atoms: _285  and  _288
REMARK  103  A    between atoms: _288  and  _289
REMARK  104  A    between atoms: _292  and  _294
REMARK  105  A    between atoms: _294  and  _295
REMARK  106  A    between atoms: _297  and  _299
REMARK  107  A    between atoms: _299  and  _300
REMARK  108  A    between atoms: _299  and  _302
REMARK  109  A    between atoms: _302  and  _303
REMARK  110  A    between atoms: _306  and  _308
REMARK  111  A    between atoms: _308  and  _309
REMARK  112  A    between atoms: _308  and  _311
REMARK  113  A    between atoms: _311  and  _312
REMARK  114  A    between atoms: _315  and  _317
REMARK  115  A    between atoms: _317  and  _318
REMARK  116  A    between atoms: _321  and  _323
REMARK  117  A    between atoms: _323  and  _324
REMARK  118  A    between atoms: _323  and  _326
REMARK  119  A    between atoms: _326  and  _327
REMARK  120  A    between atoms: _332  and  _333
REMARK  121  A    between atoms: _335  and  _337
REMARK  122  A    between atoms: _337  and  _338
REMARK  123  A    between atoms: _337  and  _340
REMARK  124  A    between atoms: _340  and  _341
REMARK  125  A    between atoms: _344  and  _346
REMARK  126  A    between atoms: _346  and  _347
REMARK  127  A    between atoms: _346  and  _349
REMARK  128  A    between atoms: _349  and  _350
REMARK  129  A    between atoms: _350  and  _351
REMARK  130  A    between atoms: _354  and  _356
REMARK  131  A    between atoms: _356  and  _357
REMARK  132  A    between atoms: _356  and  _359
REMARK  133  A    between atoms: _359  and  _360
REMARK  134  A    between atoms: _360  and  _361
REMARK  135  A    between atoms: _361  and  _362
REMARK  136  A    between atoms: _371  and  _373
REMARK  137  A    between atoms: _373  and  _374
REMARK  138  A    between atoms: _376  and  _378
REMARK  139  A    between atoms: _378  and  _379
REMARK  140  A    between atoms: _378  and  _381
REMARK  141  A    between atoms: _381  and  _382
REMARK                            x       y       z     vdW  Elec       q    Type
REMARK                         _______ _______ _______ _____ _____    ______ ____
ROOT
ATOM      1  O   HOH     1      29.810  64.981  16.446  0.00  0.00    +0.000 OA
ENDROOT
TORSDOF 0
REMARK  Name = ../refined-set-2016/3d4y/3d4y_pocket.pdb
REMARK  141 active torsions:
REMARK  status: ('A' for Active; 'I' for Inactive)
REMARK    1  A    between atoms: _1  and  _3
REMARK    2  A    between atoms: _14  and  _17
REMARK    3  A    between atoms: _17  and  _18
REMARK    4  A    between atoms: _25  and  _26
REMARK    5  A    between atoms: _33  and  _34
REMARK    6  A    between atoms: _39  and  _41
REMARK    7  A    between atoms: _41  and  _42
REMARK    8  A    between atoms: _44  and  _46
REMARK    9  A    between atoms: _46  and  _47
REMARK   10  A    between atoms: _46  and  _49
REMARK   11  A    between atoms: _49  and  _50
REMARK   12  A    between atoms: _60  and  _62
REMARK   13  A    between atoms: _62  and  _63
REMARK   14  A    between atoms: _62  and  _65
REMARK   15  A    between atoms: _65  and  _66
REMARK   16  A    between atoms: _69  and  _71
REMARK   17  A    between atoms: _71  and  _72
REMARK   18  A    between atoms: _71  and  _74
REMARK   19  A    between atoms: _74  and  _75
REMARK   20  A    between atoms: _80  and  _81
REMARK   21  A    between atoms: _83  and  _85
REMARK   22  A    between atoms: _85  and  _86
REMARK   23  A    between atoms: _85  and  _88
REMARK   24  A    between atoms: _88  and  _89
REMARK   25  A    between atoms: _89  and  _90
REMARK   26  A    between atoms: _93  and  _95
REMARK   27  A    between atoms: _95  and  _96
REMARK   28  A    between atoms: _95  and  _98
REMARK   29  A    between atoms: _98  and  _99
REMARK   30  A    between atoms: _99  and  _100
REMARK   31  A    between atoms: _102  and  _104
REMARK   32  A    between atoms: _104  and  _105
REMARK   33  A    between atoms: _104  and  _107
REMARK   34  A    between atoms: _107  and  _108
REMARK   35  A    between atoms: _111  and  _113
REMARK   36  A    between atoms: _113  and  _114
REMARK   37  A    between atoms: _113  and  _116
REMARK   38  A    between atoms: _116  and  _117
REMARK   39  A    between atoms: _117  and  _119
REMARK   40  A    between atoms: _119  and  ZN_385
REMARK   41  A    between atoms: _121  and  _122
REMARK   42  A    between atoms: _127  and  _129
REMARK   43  A    between atoms: _129  and  _130
REMARK   44  A    between atoms: _129  and  _132
REMARK   45  A    between atoms: _132  and  _133
REMARK   46  A    between atoms: _139  and  _141
REMARK   47  A    between atoms: _141  and  _142
REMARK   48  A    between atoms: _141  and  _144
REMARK   49  A    between atoms: _144  and  _145
REMARK   50  A    between atoms: _145  and  _146
REMARK   51  A    between atoms: _146  and  _147
REMARK   52  A    between atoms: _156  and  _158
REMARK   53  A    between atoms: _158  and  _159
REMARK   54  A    between atoms: _158  and  _161
REMARK   55  A    between atoms: _161  and  _162
REMARK   56  A    between atoms: _167  and  _168
REMARK   57  A    between atoms: _170  and  _172
REMARK   58  A    between atoms: _172  and  _173
REMARK   59  A    between atoms: _172  and  _175
REMARK   60  A    between atoms: _175  and  _176
REMARK   61  A    between atoms: _178  and  _180
REMARK   62  A    between atoms: _180  and  _181
REMARK   63  A    between atoms: _180  and  _183
REMARK   64  A    between atoms: _183  and  _184
REMARK   65  A    between atoms: _189  and  _190
REMARK   66  A    between atoms: _192  and  _194
REMARK   67  A    between atoms: _194  and  _195
REMARK   68  A    between atoms: _194  and  _197
REMARK   69  A    between atoms: _197  and  _198
REMARK   70  A    between atoms: _201  and  _203
REMARK   71  A    between atoms: _203  and  _204
REMARK   72  A    between atoms: _203  and  _206
REMARK   73  A    between atoms: _206  and  _207
REMARK   74  A    between atoms: _210  and  _212
REMARK   75  A    between atoms: _212  and  _213
REMARK   76  A    between atoms: _212  and  _215
REMARK   77  A    between atoms: _215  and  _216
REMARK   78  A    between atoms: _222  and  _224
REMARK   79  A    between atoms: _224  and  _225
REMARK   80  A    between atoms: _224  and  _227
REMARK   81  A    between atoms: _227  and  _228
REMARK   82  A    between atoms: _233  and  _234
REMARK   83  A    between atoms: _236  and  _238
REMARK   84  A    between atoms: _238  and  _239
REMARK   85  A    between atoms: _238  and  _241
REMARK   86  A    between atoms: _241  and  _242
REMARK   87  A    between atoms: _245  and  _247
REMARK   88  A    between atoms: _247  and  _248
REMARK   89  A    between atoms: _247  and  _250
REMARK   90  A    between atoms: _250  and  _251
REMARK   91  A    between atoms: _261  and  _263
REMARK   92  A    between atoms: _263  and  _264
REMARK   93  A    between atoms: _263  and  _266
REMARK   94  A    between atoms: _266  and  _267
REMARK   95  A    between atoms: _272  and  _274
REMARK   96  A    between atoms: _274  and  _275
REMARK   97  A    between atoms: _274  and  _277
REMARK   98  A    between atoms: _277  and  _278
REMARK   99  A    between atoms: _282  and  ZN_385
REMARK  100  A    between atoms: _283  and  _285
REMARK  101  A    between atoms: _285  and  _286
REMARK  102  A    between atoms: _285  and  _288
REMARK  103  A    between atoms: _288  and  _289
REMARK  104  A    between atoms: _292  and  _294
REMARK  105  A    between atoms: _294  and  _295
REMARK  106  A    between atoms: _297  and  _299
REMARK  107  A    between atoms: _299  and  _300
REMARK  108  A    between atoms: _299  and  _302
REMARK  109  A    between atoms: _302  and  _303
REMARK  110  A    between atoms: _306  and  _308
REMARK  111  A    between atoms: _308  and  _309
REMARK  112  A    between atoms: _308  and  _311
REMARK  113  A    between atoms: _311  and  _312
REMARK  114  A    between atoms: _315  and  _317
REMARK  115  A    between atoms: _317  and  _318
REMARK  116  A    between atoms: _321  and  _323
REMARK  117  A    between atoms: _323  and  _324
REMARK  118  A    between atoms: _323  and  _326
REMARK  119  A    between atoms: _326  and  _327
REMARK  120  A    between atoms: _332  and  _333
REMARK  121  A    between atoms: _335  and  _337
REMARK  122  A    between atoms: _337  and  _338
REMARK  123  A    between atoms: _337  and  _340
REMARK  124  A    between atoms: _340  and  _341
REMARK  125  A    between atoms: _344  and  _346
REMARK  126  A    between atoms: _346  and  _347
REMARK  127  A    between atoms: _346  and  _349
REMARK  128  A    between atoms: _349  and  _350
REMARK  129  A    between atoms: _350  and  _351
REMARK  130  A    between atoms: _354  and  _356
REMARK  131  A    between atoms: _356  and  _357
REMARK  132  A    between atoms: _356  and  _359
REMARK  133  A    between atoms: _359  and  _360
REMARK  134  A    between atoms: _360  and  _361
REMARK  135  A    between atoms: _361  and  _362
REMARK  136  A    between atoms: _371  and  _373
REMARK  137  A    between atoms: _373  and  _374
REMARK  138  A    between atoms: _376  and  _378
REMARK  139  A    between atoms: _378  and  _379
REMARK  140  A    between atoms: _378  and  _381
REMARK  141  A    between atoms: _381  and  _382
REMARK                            x       y       z     vdW  Elec       q    Type
REMARK                         _______ _______ _______ _____ _____    ______ ____
ROOT
ATOM      1  O   HOH     1      30.726  67.863  15.042  0.00  0.00    +0.000 OA
ENDROOT
TORSDOF 0
REMARK  Name = ../refined-set-2016/3d4y/3d4y_pocket.pdb
REMARK  141 active torsions:
REMARK  status: ('A' for Active; 'I' for Inactive)
REMARK    1  A    between atoms: _1  and  _3
REMARK    2  A    between atoms: _14  and  _17
REMARK    3  A    between atoms: _17  and  _18
REMARK    4  A    between atoms: _25  and  _26
REMARK    5  A    between atoms: _33  and  _34
REMARK    6  A    between atoms: _39  and  _41
REMARK    7  A    between atoms: _41  and  _42
REMARK    8  A    between atoms: _44  and  _46
REMARK    9  A    between atoms: _46  and  _47
REMARK   10  A    between atoms: _46  and  _49
REMARK   11  A    between atoms: _49  and  _50
REMARK   12  A    between atoms: _60  and  _62
REMARK   13  A    between atoms: _62  and  _63
REMARK   14  A    between atoms: _62  and  _65
REMARK   15  A    between atoms: _65  and  _66
REMARK   16  A    between atoms: _69  and  _71
REMARK   17  A    between atoms: _71  and  _72
REMARK   18  A    between atoms: _71  and  _74
REMARK   19  A    between atoms: _74  and  _75
REMARK   20  A    between atoms: _80  and  _81
REMARK   21  A    between atoms: _83  and  _85
REMARK   22  A    between atoms: _85  and  _86
REMARK   23  A    between atoms: _85  and  _88
REMARK   24  A    between atoms: _88  and  _89
REMARK   25  A    between atoms: _89  and  _90
REMARK   26  A    between atoms: _93  and  _95
REMARK   27  A    between atoms: _95  and  _96
REMARK   28  A    between atoms: _95  and  _98
REMARK   29  A    between atoms: _98  and  _99
REMARK   30  A    between atoms: _99  and  _100
REMARK   31  A    between atoms: _102  and  _104
REMARK   32  A    between atoms: _104  and  _105
REMARK   33  A    between atoms: _104  and  _107
REMARK   34  A    between atoms: _107  and  _108
REMARK   35  A    between atoms: _111  and  _113
REMARK   36  A    between atoms: _113  and  _114
REMARK   37  A    between atoms: _113  and  _116
REMARK   38  A    between atoms: _116  and  _117
REMARK   39  A    between atoms: _117  and  _119
REMARK   40  A    between atoms: _119  and  ZN_385
REMARK   41  A    between atoms: _121  and  _122
REMARK   42  A    between atoms: _127  and  _129
REMARK   43  A    between atoms: _129  and  _130
REMARK   44  A    between atoms: _129  and  _132
REMARK   45  A    between atoms: _132  and  _133
REMARK   46  A    between atoms: _139  and  _141
REMARK   47  A    between atoms: _141  and  _142
REMARK   48  A    between atoms: _141  and  _144
REMARK   49  A    between atoms: _144  and  _145
REMARK   50  A    between atoms: _145  and  _146
REMARK   51  A    between atoms: _146  and  _147
REMARK   52  A    between atoms: _156  and  _158
REMARK   53  A    between atoms: _158  and  _159
REMARK   54  A    between atoms: _158  and  _161
REMARK   55  A    between atoms: _161  and  _162
REMARK   56  A    between atoms: _167  and  _168
REMARK   57  A    between atoms: _170  and  _172
REMARK   58  A    between atoms: _172  and  _173
REMARK   59  A    between atoms: _172  and  _175
REMARK   60  A    between atoms: _175  and  _176
REMARK   61  A    between atoms: _178  and  _180
REMARK   62  A    between atoms: _180  and  _181
REMARK   63  A    between atoms: _180  and  _183
REMARK   64  A    between atoms: _183  and  _184
REMARK   65  A    between atoms: _189  and  _190
REMARK   66  A    between atoms: _192  and  _194
REMARK   67  A    between atoms: _194  and  _195
REMARK   68  A    between atoms: _194  and  _197
REMARK   69  A    between atoms: _197  and  _198
REMARK   70  A    between atoms: _201  and  _203
REMARK   71  A    between atoms: _203  and  _204
REMARK   72  A    between atoms: _203  and  _206
REMARK   73  A    between atoms: _206  and  _207
REMARK   74  A    between atoms: _210  and  _212
REMARK   75  A    between atoms: _212  and  _213
REMARK   76  A    between atoms: _212  and  _215
REMARK   77  A    between atoms: _215  and  _216
REMARK   78  A    between atoms: _222  and  _224
REMARK   79  A    between atoms: _224  and  _225
REMARK   80  A    between atoms: _224  and  _227
REMARK   81  A    between atoms: _227  and  _228
REMARK   82  A    between atoms: _233  and  _234
REMARK   83  A    between atoms: _236  and  _238
REMARK   84  A    between atoms: _238  and  _239
REMARK   85  A    between atoms: _238  and  _241
REMARK   86  A    between atoms: _241  and  _242
REMARK   87  A    between atoms: _245  and  _247
REMARK   88  A    between atoms: _247  and  _248
REMARK   89  A    between atoms: _247  and  _250
REMARK   90  A    between atoms: _250  and  _251
REMARK   91  A    between atoms: _261  and  _263
REMARK   92  A    between atoms: _263  and  _264
REMARK   93  A    between atoms: _263  and  _266
REMARK   94  A    between atoms: _266  and  _267
REMARK   95  A    between atoms: _272  and  _274
REMARK   96  A    between atoms: _274  and  _275
REMARK   97  A    between atoms: _274  and  _277
REMARK   98  A    between atoms: _277  and  _278
REMARK   99  A    between atoms: _282  and  ZN_385
REMARK  100  A    between atoms: _283  and  _285
REMARK  101  A    between atoms: _285  and  _286
REMARK  102  A    between atoms: _285  and  _288
REMARK  103  A    between atoms: _288  and  _289
REMARK  104  A    between atoms: _292  and  _294
REMARK  105  A    between atoms: _294  and  _295
REMARK  106  A    between atoms: _297  and  _299
REMARK  107  A    between atoms: _299  and  _300
REMARK  108  A    between atoms: _299  and  _302
REMARK  109  A    between atoms: _302  and  _303
REMARK  110  A    between atoms: _306  and  _308
REMARK  111  A    between atoms: _308  and  _309
REMARK  112  A    between atoms: _308  and  _311
REMARK  113  A    between atoms: _311  and  _312
REMARK  114  A    between atoms: _315  and  _317
REMARK  115  A    between atoms: _317  and  _318
REMARK  116  A    between atoms: _321  and  _323
REMARK  117  A    between atoms: _323  and  _324
REMARK  118  A    between atoms: _323  and  _326
REMARK  119  A    between atoms: _326  and  _327
REMARK  120  A    between atoms: _332  and  _333
REMARK  121  A    between atoms: _335  and  _337
REMARK  122  A    between atoms: _337  and  _338
REMARK  123  A    between atoms: _337  and  _340
REMARK  124  A    between atoms: _340  and  _341
REMARK  125  A    between atoms: _344  and  _346
REMARK  126  A    between atoms: _346  and  _347
REMARK  127  A    between atoms: _346  and  _349
REMARK  128  A    between atoms: _349  and  _350
REMARK  129  A    between atoms: _350  and  _351
REMARK  130  A    between atoms: _354  and  _356
REMARK  131  A    between atoms: _356  and  _357
REMARK  132  A    between atoms: _356  and  _359
REMARK  133  A    between atoms: _359  and  _360
REMARK  134  A    between atoms: _360  and  _361
REMARK  135  A    between atoms: _361  and  _362
REMARK  136  A    between atoms: _371  and  _373
REMARK  137  A    between atoms: _373  and  _374
REMARK  138  A    between atoms: _376  and  _378
REMARK  139  A    between atoms: _378  and  _379
REMARK  140  A    between atoms: _378  and  _381
REMARK  141  A    between atoms: _381  and  _382
REMARK                            x       y       z     vdW  Elec       q    Type
REMARK                         _______ _______ _______ _____ _____    ______ ____
ROOT
ATOM      1  O   HOH     1      31.600  70.478  14.444  0.00  0.00    +0.000 OA
ENDROOT
TORSDOF 0
REMARK  Name = ../refined-set-2016/3d4y/3d4y_pocket.pdb
REMARK  141 active torsions:
REMARK  status: ('A' for Active; 'I' for Inactive)
REMARK    1  A    between atoms: _1  and  _3
REMARK    2  A    between atoms: _14  and  _17
REMARK    3  A    between atoms: _17  and  _18
REMARK    4  A    between atoms: _25  and  _26
REMARK    5  A    between atoms: _33  and  _34
REMARK    6  A    between atoms: _39  and  _41
REMARK    7  A    between atoms: _41  and  _42
REMARK    8  A    between atoms: _44  and  _46
REMARK    9  A    between atoms: _46  and  _47
REMARK   10  A    between atoms: _46  and  _49
REMARK   11  A    between atoms: _49  and  _50
REMARK   12  A    between atoms: _60  and  _62
REMARK   13  A    between atoms: _62  and  _63
REMARK   14  A    between atoms: _62  and  _65
REMARK   15  A    between atoms: _65  and  _66
REMARK   16  A    between atoms: _69  and  _71
REMARK   17  A    between atoms: _71  and  _72
REMARK   18  A    between atoms: _71  and  _74
REMARK   19  A    between atoms: _74  and  _75
REMARK   20  A    between atoms: _80  and  _81
REMARK   21  A    between atoms: _83  and  _85
REMARK   22  A    between atoms: _85  and  _86
REMARK   23  A    between atoms: _85  and  _88
REMARK   24  A    between atoms: _88  and  _89
REMARK   25  A    between atoms: _89  and  _90
REMARK   26  A    between atoms: _93  and  _95
REMARK   27  A    between atoms: _95  and  _96
REMARK   28  A    between atoms: _95  and  _98
REMARK   29  A    between atoms: _98  and  _99
REMARK   30  A    between atoms: _99  and  _100
REMARK   31  A    between atoms: _102  and  _104
REMARK   32  A    between atoms: _104  and  _105
REMARK   33  A    between atoms: _104  and  _107
REMARK   34  A    between atoms: _107  and  _108
REMARK   35  A    between atoms: _111  and  _113
REMARK   36  A    between atoms: _113  and  _114
REMARK   37  A    between atoms: _113  and  _116
REMARK   38  A    between atoms: _116  and  _117
REMARK   39  A    between atoms: _117  and  _119
REMARK   40  A    between atoms: _119  and  ZN_385
REMARK   41  A    between atoms: _121  and  _122
REMARK   42  A    between atoms: _127  and  _129
REMARK   43  A    between atoms: _129  and  _130
REMARK   44  A    between atoms: _129  and  _132
REMARK   45  A    between atoms: _132  and  _133
REMARK   46  A    between atoms: _139  and  _141
REMARK   47  A    between atoms: _141  and  _142
REMARK   48  A    between atoms: _141  and  _144
REMARK   49  A    between atoms: _144  and  _145
REMARK   50  A    between atoms: _145  and  _146
REMARK   51  A    between atoms: _146  and  _147
REMARK   52  A    between atoms: _156  and  _158
REMARK   53  A    between atoms: _158  and  _159
REMARK   54  A    between atoms: _158  and  _161
REMARK   55  A    between atoms: _161  and  _162
REMARK   56  A    between atoms: _167  and  _168
REMARK   57  A    between atoms: _170  and  _172
REMARK   58  A    between atoms: _172  and  _173
REMARK   59  A    between atoms: _172  and  _175
REMARK   60  A    between atoms: _175  and  _176
REMARK   61  A    between atoms: _178  and  _180
REMARK   62  A    between atoms: _180  and  _181
REMARK   63  A    between atoms: _180  and  _183
REMARK   64  A    between atoms: _183  and  _184
REMARK   65  A    between atoms: _189  and  _190
REMARK   66  A    between atoms: _192  and  _194
REMARK   67  A    between atoms: _194  and  _195
REMARK   68  A    between atoms: _194  and  _197
REMARK   69  A    between atoms: _197  and  _198
REMARK   70  A    between atoms: _201  and  _203
REMARK   71  A    between atoms: _203  and  _204
REMARK   72  A    between atoms: _203  and  _206
REMARK   73  A    between atoms: _206  and  _207
REMARK   74  A    between atoms: _210  and  _212
REMARK   75  A    between atoms: _212  and  _213
REMARK   76  A    between atoms: _212  and  _215
REMARK   77  A    between atoms: _215  and  _216
REMARK   78  A    between atoms: _222  and  _224
REMARK   79  A    between atoms: _224  and  _225
REMARK   80  A    between atoms: _224  and  _227
REMARK   81  A    between atoms: _227  and  _228
REMARK   82  A    between atoms: _233  and  _234
REMARK   83  A    between atoms: _236  and  _238
REMARK   84  A    between atoms: _238  and  _239
REMARK   85  A    between atoms: _238  and  _241
REMARK   86  A    between atoms: _241  and  _242
REMARK   87  A    between atoms: _245  and  _247
REMARK   88  A    between atoms: _247  and  _248
REMARK   89  A    between atoms: _247  and  _250
REMARK   90  A    between atoms: _250  and  _251
REMARK   91  A    between atoms: _261  and  _263
REMARK   92  A    between atoms: _263  and  _264
REMARK   93  A    between atoms: _263  and  _266
REMARK   94  A    between atoms: _266  and  _267
REMARK   95  A    between atoms: _272  and  _274
REMARK   96  A    between atoms: _274  and  _275
REMARK   97  A    between atoms: _274  and  _277
REMARK   98  A    between atoms: _277  and  _278
REMARK   99  A    between atoms: _282  and  ZN_385
REMARK  100  A    between atoms: _283  and  _285
REMARK  101  A    between atoms: _285  and  _286
REMARK  102  A    between atoms: _285  and  _288
REMARK  103  A    between atoms: _288  and  _289
REMARK  104  A    between atoms: _292  and  _294
REMARK  105  A    between atoms: _294  and  _295
REMARK  106  A    between atoms: _297  and  _299
REMARK  107  A    between atoms: _299  and  _300
REMARK  108  A    between atoms: _299  and  _302
REMARK  109  A    between atoms: _302  and  _303
REMARK  110  A    between atoms: _306  and  _308
REMARK  111  A    between atoms: _308  and  _309
REMARK  112  A    between atoms: _308  and  _311
REMARK  113  A    between atoms: _311  and  _312
REMARK  114  A    between atoms: _315  and  _317
REMARK  115  A    between atoms: _317  and  _318
REMARK  116  A    between atoms: _321  and  _323
REMARK  117  A    between atoms: _323  and  _324
REMARK  118  A    between atoms: _323  and  _326
REMARK  119  A    between atoms: _326  and  _327
REMARK  120  A    between atoms: _332  and  _333
REMARK  121  A    between atoms: _335  and  _337
REMARK  122  A    between atoms: _337  and  _338
REMARK  123  A    between atoms: _337  and  _340
REMARK  124  A    between atoms: _340  and  _341
REMARK  125  A    between atoms: _344  and  _346
REMARK  126  A    between atoms: _346  and  _347
REMARK  127  A    between atoms: _346  and  _349
REMARK  128  A    between atoms: _349  and  _350
REMARK  129  A    between atoms: _350  and  _351
REMARK  130  A    between atoms: _354  and  _356
REMARK  131  A    between atoms: _356  and  _357
REMARK  132  A    between atoms: _356  and  _359
REMARK  133  A    between atoms: _359  and  _360
REMARK  134  A    between atoms: _360  and  _361
REMARK  135  A    between atoms: _361  and  _362
REMARK  136  A    between atoms: _371  and  _373
REMARK  137  A    between atoms: _373  and  _374
REMARK  138  A    between atoms: _376  and  _378
REMARK  139  A    between atoms: _378  and  _379
REMARK  140  A    between atoms: _378  and  _381
REMARK  141  A    between atoms: _381  and  _382
REMARK                            x       y       z     vdW  Elec       q    Type
REMARK                         _______ _______ _______ _____ _____    ______ ____
ROOT
ATOM      1  O   HOH     1      29.442  71.228  12.829  0.00  0.00    +0.000 OA
ENDROOT
TORSDOF 0
REMARK  Name = ../refined-set-2016/3d4y/3d4y_pocket.pdb
REMARK  141 active torsions:
REMARK  status: ('A' for Active; 'I' for Inactive)
REMARK    1  A    between atoms: _1  and  _3
REMARK    2  A    between atoms: _14  and  _17
REMARK    3  A    between atoms: _17  and  _18
REMARK    4  A    between atoms: _25  and  _26
REMARK    5  A    between atoms: _33  and  _34
REMARK    6  A    between atoms: _39  and  _41
REMARK    7  A    between atoms: _41  and  _42
REMARK    8  A    between atoms: _44  and  _46
REMARK    9  A    between atoms: _46  and  _47
REMARK   10  A    between atoms: _46  and  _49
REMARK   11  A    between atoms: _49  and  _50
REMARK   12  A    between atoms: _60  and  _62
REMARK   13  A    between atoms: _62  and  _63
REMARK   14  A    between atoms: _62  and  _65
REMARK   15  A    between atoms: _65  and  _66
REMARK   16  A    between atoms: _69  and  _71
REMARK   17  A    between atoms: _71  and  _72
REMARK   18  A    between atoms: _71  and  _74
REMARK   19  A    between atoms: _74  and  _75
REMARK   20  A    between atoms: _80  and  _81
REMARK   21  A    between atoms: _83  and  _85
REMARK   22  A    between atoms: _85  and  _86
REMARK   23  A    between atoms: _85  and  _88
REMARK   24  A    between atoms: _88  and  _89
REMARK   25  A    between atoms: _89  and  _90
REMARK   26  A    between atoms: _93  and  _95
REMARK   27  A    between atoms: _95  and  _96
REMARK   28  A    between atoms: _95  and  _98
REMARK   29  A    between atoms: _98  and  _99
REMARK   30  A    between atoms: _99  and  _100
REMARK   31  A    between atoms: _102  and  _104
REMARK   32  A    between atoms: _104  and  _105
REMARK   33  A    between atoms: _104  and  _107
REMARK   34  A    between atoms: _107  and  _108
REMARK   35  A    between atoms: _111  and  _113
REMARK   36  A    between atoms: _113  and  _114
REMARK   37  A    between atoms: _113  and  _116
REMARK   38  A    between atoms: _116  and  _117
REMARK   39  A    between atoms: _117  and  _119
REMARK   40  A    between atoms: _119  and  ZN_385
REMARK   41  A    between atoms: _121  and  _122
REMARK   42  A    between atoms: _127  and  _129
REMARK   43  A    between atoms: _129  and  _130
REMARK   44  A    between atoms: _129  and  _132
REMARK   45  A    between atoms: _132  and  _133
REMARK   46  A    between atoms: _139  and  _141
REMARK   47  A    between atoms: _141  and  _142
REMARK   48  A    between atoms: _141  and  _144
REMARK   49  A    between atoms: _144  and  _145
REMARK   50  A    between atoms: _145  and  _146
REMARK   51  A    between atoms: _146  and  _147
REMARK   52  A    between atoms: _156  and  _158
REMARK   53  A    between atoms: _158  and  _159
REMARK   54  A    between atoms: _158  and  _161
REMARK   55  A    between atoms: _161  and  _162
REMARK   56  A    between atoms: _167  and  _168
REMARK   57  A    between atoms: _170  and  _172
REMARK   58  A    between atoms: _172  and  _173
REMARK   59  A    between atoms: _172  and  _175
REMARK   60  A    between atoms: _175  and  _176
REMARK   61  A    between atoms: _178  and  _180
REMARK   62  A    between atoms: _180  and  _181
REMARK   63  A    between atoms: _180  and  _183
REMARK   64  A    between atoms: _183  and  _184
REMARK   65  A    between atoms: _189  and  _190
REMARK   66  A    between atoms: _192  and  _194
REMARK   67  A    between atoms: _194  and  _195
REMARK   68  A    between atoms: _194  and  _197
REMARK   69  A    between atoms: _197  and  _198
REMARK   70  A    between atoms: _201  and  _203
REMARK   71  A    between atoms: _203  and  _204
REMARK   72  A    between atoms: _203  and  _206
REMARK   73  A    between atoms: _206  and  _207
REMARK   74  A    between atoms: _210  and  _212
REMARK   75  A    between atoms: _212  and  _213
REMARK   76  A    between atoms: _212  and  _215
REMARK   77  A    between atoms: _215  and  _216
REMARK   78  A    between atoms: _222  and  _224
REMARK   79  A    between atoms: _224  and  _225
REMARK   80  A    between atoms: _224  and  _227
REMARK   81  A    between atoms: _227  and  _228
REMARK   82  A    between atoms: _233  and  _234
REMARK   83  A    between atoms: _236  and  _238
REMARK   84  A    between atoms: _238  and  _239
REMARK   85  A    between atoms: _238  and  _241
REMARK   86  A    between atoms: _241  and  _242
REMARK   87  A    between atoms: _245  and  _247
REMARK   88  A    between atoms: _247  and  _248
REMARK   89  A    between atoms: _247  and  _250
REMARK   90  A    between atoms: _250  and  _251
REMARK   91  A    between atoms: _261  and  _263
REMARK   92  A    between atoms: _263  and  _264
REMARK   93  A    between atoms: _263  and  _266
REMARK   94  A    between atoms: _266  and  _267
REMARK   95  A    between atoms: _272  and  _274
REMARK   96  A    between atoms: _274  and  _275
REMARK   97  A    between atoms: _274  and  _277
REMARK   98  A    between atoms: _277  and  _278
REMARK   99  A    between atoms: _282  and  ZN_385
REMARK  100  A    between atoms: _283  and  _285
REMARK  101  A    between atoms: _285  and  _286
REMARK  102  A    between atoms: _285  and  _288
REMARK  103  A    between atoms: _288  and  _289
REMARK  104  A    between atoms: _292  and  _294
REMARK  105  A    between atoms: _294  and  _295
REMARK  106  A    between atoms: _297  and  _299
REMARK  107  A    between atoms: _299  and  _300
REMARK  108  A    between atoms: _299  and  _302
REMARK  109  A    between atoms: _302  and  _303
REMARK  110  A    between atoms: _306  and  _308
REMARK  111  A    between atoms: _308  and  _309
REMARK  112  A    between atoms: _308  and  _311
REMARK  113  A    between atoms: _311  and  _312
REMARK  114  A    between atoms: _315  and  _317
REMARK  115  A    between atoms: _317  and  _318
REMARK  116  A    between atoms: _321  and  _323
REMARK  117  A    between atoms: _323  and  _324
REMARK  118  A    between atoms: _323  and  _326
REMARK  119  A    between atoms: _326  and  _327
REMARK  120  A    between atoms: _332  and  _333
REMARK  121  A    between atoms: _335  and  _337
REMARK  122  A    between atoms: _337  and  _338
REMARK  123  A    between atoms: _337  and  _340
REMARK  124  A    between atoms: _340  and  _341
REMARK  125  A    between atoms: _344  and  _346
REMARK  126  A    between atoms: _346  and  _347
REMARK  127  A    between atoms: _346  and  _349
REMARK  128  A    between atoms: _349  and  _350
REMARK  129  A    between atoms: _350  and  _351
REMARK  130  A    between atoms: _354  and  _356
REMARK  131  A    between atoms: _356  and  _357
REMARK  132  A    between atoms: _356  and  _359
REMARK  133  A    between atoms: _359  and  _360
REMARK  134  A    between atoms: _360  and  _361
REMARK  135  A    between atoms: _361  and  _362
REMARK  136  A    between atoms: _371  and  _373
REMARK  137  A    between atoms: _373  and  _374
REMARK  138  A    between atoms: _376  and  _378
REMARK  139  A    between atoms: _378  and  _379
REMARK  140  A    between atoms: _378  and  _381
REMARK  141  A    between atoms: _381  and  _382
REMARK                            x       y       z     vdW  Elec       q    Type
REMARK                         _______ _______ _______ _____ _____    ______ ____
ROOT
ATOM      1  O   HOH     1      24.954  73.191   9.578  0.00  0.00    +0.000 OA
ENDROOT
TORSDOF 0
REMARK  Name = ../refined-set-2016/3d4y/3d4y_pocket.pdb
REMARK  141 active torsions:
REMARK  status: ('A' for Active; 'I' for Inactive)
REMARK    1  A    between atoms: _1  and  _3
REMARK    2  A    between atoms: _14  and  _17
REMARK    3  A    between atoms: _17  and  _18
REMARK    4  A    between atoms: _25  and  _26
REMARK    5  A    between atoms: _33  and  _34
REMARK    6  A    between atoms: _39  and  _41
REMARK    7  A    between atoms: _41  and  _42
REMARK    8  A    between atoms: _44  and  _46
REMARK    9  A    between atoms: _46  and  _47
REMARK   10  A    between atoms: _46  and  _49
REMARK   11  A    between atoms: _49  and  _50
REMARK   12  A    between atoms: _60  and  _62
REMARK   13  A    between atoms: _62  and  _63
REMARK   14  A    between atoms: _62  and  _65
REMARK   15  A    between atoms: _65  and  _66
REMARK   16  A    between atoms: _69  and  _71
REMARK   17  A    between atoms: _71  and  _72
REMARK   18  A    between atoms: _71  and  _74
REMARK   19  A    between atoms: _74  and  _75
REMARK   20  A    between atoms: _80  and  _81
REMARK   21  A    between atoms: _83  and  _85
REMARK   22  A    between atoms: _85  and  _86
REMARK   23  A    between atoms: _85  and  _88
REMARK   24  A    between atoms: _88  and  _89
REMARK   25  A    between atoms: _89  and  _90
REMARK   26  A    between atoms: _93  and  _95
REMARK   27  A    between atoms: _95  and  _96
REMARK   28  A    between atoms: _95  and  _98
REMARK   29  A    between atoms: _98  and  _99
REMARK   30  A    between atoms: _99  and  _100
REMARK   31  A    between atoms: _102  and  _104
REMARK   32  A    between atoms: _104  and  _105
REMARK   33  A    between atoms: _104  and  _107
REMARK   34  A    between atoms: _107  and  _108
REMARK   35  A    between atoms: _111  and  _113
REMARK   36  A    between atoms: _113  and  _114
REMARK   37  A    between atoms: _113  and  _116
REMARK   38  A    between atoms: _116  and  _117
REMARK   39  A    between atoms: _117  and  _119
REMARK   40  A    between atoms: _119  and  ZN_385
REMARK   41  A    between atoms: _121  and  _122
REMARK   42  A    between atoms: _127  and  _129
REMARK   43  A    between atoms: _129  and  _130
REMARK   44  A    between atoms: _129  and  _132
REMARK   45  A    between atoms: _132  and  _133
REMARK   46  A    between atoms: _139  and  _141
REMARK   47  A    between atoms: _141  and  _142
REMARK   48  A    between atoms: _141  and  _144
REMARK   49  A    between atoms: _144  and  _145
REMARK   50  A    between atoms: _145  and  _146
REMARK   51  A    between atoms: _146  and  _147
REMARK   52  A    between atoms: _156  and  _158
REMARK   53  A    between atoms: _158  and  _159
REMARK   54  A    between atoms: _158  and  _161
REMARK   55  A    between atoms: _161  and  _162
REMARK   56  A    between atoms: _167  and  _168
REMARK   57  A    between atoms: _170  and  _172
REMARK   58  A    between atoms: _172  and  _173
REMARK   59  A    between atoms: _172  and  _175
REMARK   60  A    between atoms: _175  and  _176
REMARK   61  A    between atoms: _178  and  _180
REMARK   62  A    between atoms: _180  and  _181
REMARK   63  A    between atoms: _180  and  _183
REMARK   64  A    between atoms: _183  and  _184
REMARK   65  A    between atoms: _189  and  _190
REMARK   66  A    between atoms: _192  and  _194
REMARK   67  A    between atoms: _194  and  _195
REMARK   68  A    between atoms: _194  and  _197
REMARK   69  A    between atoms: _197  and  _198
REMARK   70  A    between atoms: _201  and  _203
REMARK   71  A    between atoms: _203  and  _204
REMARK   72  A    between atoms: _203  and  _206
REMARK   73  A    between atoms: _206  and  _207
REMARK   74  A    between atoms: _210  and  _212
REMARK   75  A    between atoms: _212  and  _213
REMARK   76  A    between atoms: _212  and  _215
REMARK   77  A    between atoms: _215  and  _216
REMARK   78  A    between atoms: _222  and  _224
REMARK   79  A    between atoms: _224  and  _225
REMARK   80  A    between atoms: _224  and  _227
REMARK   81  A    between atoms: _227  and  _228
REMARK   82  A    between atoms: _233  and  _234
REMARK   83  A    between atoms: _236  and  _238
REMARK   84  A    between atoms: _238  and  _239
REMARK   85  A    between atoms: _238  and  _241
REMARK   86  A    between atoms: _241  and  _242
REMARK   87  A    between atoms: _245  and  _247
REMARK   88  A    between atoms: _247  and  _248
REMARK   89  A    between atoms: _247  and  _250
REMARK   90  A    between atoms: _250  and  _251
REMARK   91  A    between atoms: _261  and  _263
REMARK   92  A    between atoms: _263  and  _264
REMARK   93  A    between atoms: _263  and  _266
REMARK   94  A    between atoms: _266  and  _267
REMARK   95  A    between atoms: _272  and  _274
REMARK   96  A    between atoms: _274  and  _275
REMARK   97  A    between atoms: _274  and  _277
REMARK   98  A    between atoms: _277  and  _278
REMARK   99  A    between atoms: _282  and  ZN_385
REMARK  100  A    between atoms: _283  and  _285
REMARK  101  A    between atoms: _285  and  _286
REMARK  102  A    between atoms: _285  and  _288
REMARK  103  A    between atoms: _288  and  _289
REMARK  104  A    between atoms: _292  and  _294
REMARK  105  A    between atoms: _294  and  _295
REMARK  106  A    between atoms: _297  and  _299
REMARK  107  A    between atoms: _299  and  _300
REMARK  108  A    between atoms: _299  and  _302
REMARK  109  A    between atoms: _302  and  _303
REMARK  110  A    between atoms: _306  and  _308
REMARK  111  A    between atoms: _308  and  _309
REMARK  112  A    between atoms: _308  and  _311
REMARK  113  A    between atoms: _311  and  _312
REMARK  114  A    between atoms: _315  and  _317
REMARK  115  A    between atoms: _317  and  _318
REMARK  116  A    between atoms: _321  and  _323
REMARK  117  A    between atoms: _323  and  _324
REMARK  118  A    between atoms: _323  and  _326
REMARK  119  A    between atoms: _326  and  _327
REMARK  120  A    between atoms: _332  and  _333
REMARK  121  A    between atoms: _335  and  _337
REMARK  122  A    between atoms: _337  and  _338
REMARK  123  A    between atoms: _337  and  _340
REMARK  124  A    between atoms: _340  and  _341
REMARK  125  A    between atoms: _344  and  _346
REMARK  126  A    between atoms: _346  and  _347
REMARK  127  A    between atoms: _346  and  _349
REMARK  128  A    between atoms: _349  and  _350
REMARK  129  A    between atoms: _350  and  _351
REMARK  130  A    between atoms: _354  and  _356
REMARK  131  A    between atoms: _356  and  _357
REMARK  132  A    between atoms: _356  and  _359
REMARK  133  A    between atoms: _359  and  _360
REMARK  134  A    between atoms: _360  and  _361
REMARK  135  A    between atoms: _361  and  _362
REMARK  136  A    between atoms: _371  and  _373
REMARK  137  A    between atoms: _373  and  _374
REMARK  138  A    between atoms: _376  and  _378
REMARK  139  A    between atoms: _378  and  _379
REMARK  140  A    between atoms: _378  and  _381
REMARK  141  A    between atoms: _381  and  _382
REMARK                            x       y       z     vdW  Elec       q    Type
REMARK                         _______ _______ _______ _____ _____    ______ ____
ROOT
ATOM      1  O   HOH     1      25.931  72.195   6.362  0.00  0.00    +0.000 OA
ENDROOT
TORSDOF 0
REMARK  Name = ../refined-set-2016/3d4y/3d4y_pocket.pdb
REMARK  141 active torsions:
REMARK  status: ('A' for Active; 'I' for Inactive)
REMARK    1  A    between atoms: _1  and  _3
REMARK    2  A    between atoms: _14  and  _17
REMARK    3  A    between atoms: _17  and  _18
REMARK    4  A    between atoms: _25  and  _26
REMARK    5  A    between atoms: _33  and  _34
REMARK    6  A    between atoms: _39  and  _41
REMARK    7  A    between atoms: _41  and  _42
REMARK    8  A    between atoms: _44  and  _46
REMARK    9  A    between atoms: _46  and  _47
REMARK   10  A    between atoms: _46  and  _49
REMARK   11  A    between atoms: _49  and  _50
REMARK   12  A    between atoms: _60  and  _62
REMARK   13  A    between atoms: _62  and  _63
REMARK   14  A    between atoms: _62  and  _65
REMARK   15  A    between atoms: _65  and  _66
REMARK   16  A    between atoms: _69  and  _71
REMARK   17  A    between atoms: _71  and  _72
REMARK   18  A    between atoms: _71  and  _74
REMARK   19  A    between atoms: _74  and  _75
REMARK   20  A    between atoms: _80  and  _81
REMARK   21  A    between atoms: _83  and  _85
REMARK   22  A    between atoms: _85  and  _86
REMARK   23  A    between atoms: _85  and  _88
REMARK   24  A    between atoms: _88  and  _89
REMARK   25  A    between atoms: _89  and  _90
REMARK   26  A    between atoms: _93  and  _95
REMARK   27  A    between atoms: _95  and  _96
REMARK   28  A    between atoms: _95  and  _98
REMARK   29  A    between atoms: _98  and  _99
REMARK   30  A    between atoms: _99  and  _100
REMARK   31  A    between atoms: _102  and  _104
REMARK   32  A    between atoms: _104  and  _105
REMARK   33  A    between atoms: _104  and  _107
REMARK   34  A    between atoms: _107  and  _108
REMARK   35  A    between atoms: _111  and  _113
REMARK   36  A    between atoms: _113  and  _114
REMARK   37  A    between atoms: _113  and  _116
REMARK   38  A    between atoms: _116  and  _117
REMARK   39  A    between atoms: _117  and  _119
REMARK   40  A    between atoms: _119  and  ZN_385
REMARK   41  A    between atoms: _121  and  _122
REMARK   42  A    between atoms: _127  and  _129
REMARK   43  A    between atoms: _129  and  _130
REMARK   44  A    between atoms: _129  and  _132
REMARK   45  A    between atoms: _132  and  _133
REMARK   46  A    between atoms: _139  and  _141
REMARK   47  A    between atoms: _141  and  _142
REMARK   48  A    between atoms: _141  and  _144
REMARK   49  A    between atoms: _144  and  _145
REMARK   50  A    between atoms: _145  and  _146
REMARK   51  A    between atoms: _146  and  _147
REMARK   52  A    between atoms: _156  and  _158
REMARK   53  A    between atoms: _158  and  _159
REMARK   54  A    between atoms: _158  and  _161
REMARK   55  A    between atoms: _161  and  _162
REMARK   56  A    between atoms: _167  and  _168
REMARK   57  A    between atoms: _170  and  _172
REMARK   58  A    between atoms: _172  and  _173
REMARK   59  A    between atoms: _172  and  _175
REMARK   60  A    between atoms: _175  and  _176
REMARK   61  A    between atoms: _178  and  _180
REMARK   62  A    between atoms: _180  and  _181
REMARK   63  A    between atoms: _180  and  _183
REMARK   64  A    between atoms: _183  and  _184
REMARK   65  A    between atoms: _189  and  _190
REMARK   66  A    between atoms: _192  and  _194
REMARK   67  A    between atoms: _194  and  _195
REMARK   68  A    between atoms: _194  and  _197
REMARK   69  A    between atoms: _197  and  _198
REMARK   70  A    between atoms: _201  and  _203
REMARK   71  A    between atoms: _203  and  _204
REMARK   72  A    between atoms: _203  and  _206
REMARK   73  A    between atoms: _206  and  _207
REMARK   74  A    between atoms: _210  and  _212
REMARK   75  A    between atoms: _212  and  _213
REMARK   76  A    between atoms: _212  and  _215
REMARK   77  A    between atoms: _215  and  _216
REMARK   78  A    between atoms: _222  and  _224
REMARK   79  A    between atoms: _224  and  _225
REMARK   80  A    between atoms: _224  and  _227
REMARK   81  A    between atoms: _227  and  _228
REMARK   82  A    between atoms: _233  and  _234
REMARK   83  A    between atoms: _236  and  _238
REMARK   84  A    between atoms: _238  and  _239
REMARK   85  A    between atoms: _238  and  _241
REMARK   86  A    between atoms: _241  and  _242
REMARK   87  A    between atoms: _245  and  _247
REMARK   88  A    between atoms: _247  and  _248
REMARK   89  A    between atoms: _247  and  _250
REMARK   90  A    between atoms: _250  and  _251
REMARK   91  A    between atoms: _261  and  _263
REMARK   92  A    between atoms: _263  and  _264
REMARK   93  A    between atoms: _263  and  _266
REMARK   94  A    between atoms: _266  and  _267
REMARK   95  A    between atoms: _272  and  _274
REMARK   96  A    between atoms: _274  and  _275
REMARK   97  A    between atoms: _274  and  _277
REMARK   98  A    between atoms: _277  and  _278
REMARK   99  A    between atoms: _282  and  ZN_385
REMARK  100  A    between atoms: _283  and  _285
REMARK  101  A    between atoms: _285  and  _286
REMARK  102  A    between atoms: _285  and  _288
REMARK  103  A    between atoms: _288  and  _289
REMARK  104  A    between atoms: _292  and  _294
REMARK  105  A    between atoms: _294  and  _295
REMARK  106  A    between atoms: _297  and  _299
REMARK  107  A    between atoms: _299  and  _300
REMARK  108  A    between atoms: _299  and  _302
REMARK  109  A    between atoms: _302  and  _303
REMARK  110  A    between atoms: _306  and  _308
REMARK  111  A    between atoms: _308  and  _309
REMARK  112  A    between atoms: _308  and  _311
REMARK  113  A    between atoms: _311  and  _312
REMARK  114  A    between atoms: _315  and  _317
REMARK  115  A    between atoms: _317  and  _318
REMARK  116  A    between atoms: _321  and  _323
REMARK  117  A    between atoms: _323  and  _324
REMARK  118  A    between atoms: _323  and  _326
REMARK  119  A    between atoms: _326  and  _327
REMARK  120  A    between atoms: _332  and  _333
REMARK  121  A    between atoms: _335  and  _337
REMARK  122  A    between atoms: _337  and  _338
REMARK  123  A    between atoms: _337  and  _340
REMARK  124  A    between atoms: _340  and  _341
REMARK  125  A    between atoms: _344  and  _346
REMARK  126  A    between atoms: _346  and  _347
REMARK  127  A    between atoms: _346  and  _349
REMARK  128  A    between atoms: _349  and  _350
REMARK  129  A    between atoms: _350  and  _351
REMARK  130  A    between atoms: _354  and  _356
REMARK  131  A    between atoms: _356  and  _357
REMARK  132  A    between atoms: _356  and  _359
REMARK  133  A    between atoms: _359  and  _360
REMARK  134  A    between atoms: _360  and  _361
REMARK  135  A    between atoms: _361  and  _362
REMARK  136  A    between atoms: _371  and  _373
REMARK  137  A    between atoms: _373  and  _374
REMARK  138  A    between atoms: _376  and  _378
REMARK  139  A    between atoms: _378  and  _379
REMARK  140  A    between atoms: _378  and  _381
REMARK  141  A    between atoms: _381  and  _382
REMARK                            x       y       z     vdW  Elec       q    Type
REMARK                         _______ _______ _______ _____ _____    ______ ____
ROOT
ATOM      1  O   HOH     1      33.069  62.231   0.573  0.00  0.00    +0.000 OA
ENDROOT
TORSDOF 0
REMARK  Name = ../refined-set-2016/3d4y/3d4y_pocket.pdb
REMARK  141 active torsions:
REMARK  status: ('A' for Active; 'I' for Inactive)
REMARK    1  A    between atoms: _1  and  _3
REMARK    2  A    between atoms: _14  and  _17
REMARK    3  A    between atoms: _17  and  _18
REMARK    4  A    between atoms: _25  and  _26
REMARK    5  A    between atoms: _33  and  _34
REMARK    6  A    between atoms: _39  and  _41
REMARK    7  A    between atoms: _41  and  _42
REMARK    8  A    between atoms: _44  and  _46
REMARK    9  A    between atoms: _46  and  _47
REMARK   10  A    between atoms: _46  and  _49
REMARK   11  A    between atoms: _49  and  _50
REMARK   12  A    between atoms: _60  and  _62
REMARK   13  A    between atoms: _62  and  _63
REMARK   14  A    between atoms: _62  and  _65
REMARK   15  A    between atoms: _65  and  _66
REMARK   16  A    between atoms: _69  and  _71
REMARK   17  A    between atoms: _71  and  _72
REMARK   18  A    between atoms: _71  and  _74
REMARK   19  A    between atoms: _74  and  _75
REMARK   20  A    between atoms: _80  and  _81
REMARK   21  A    between atoms: _83  and  _85
REMARK   22  A    between atoms: _85  and  _86
REMARK   23  A    between atoms: _85  and  _88
REMARK   24  A    between atoms: _88  and  _89
REMARK   25  A    between atoms: _89  and  _90
REMARK   26  A    between atoms: _93  and  _95
REMARK   27  A    between atoms: _95  and  _96
REMARK   28  A    between atoms: _95  and  _98
REMARK   29  A    between atoms: _98  and  _99
REMARK   30  A    between atoms: _99  and  _100
REMARK   31  A    between atoms: _102  and  _104
REMARK   32  A    between atoms: _104  and  _105
REMARK   33  A    between atoms: _104  and  _107
REMARK   34  A    between atoms: _107  and  _108
REMARK   35  A    between atoms: _111  and  _113
REMARK   36  A    between atoms: _113  and  _114
REMARK   37  A    between atoms: _113  and  _116
REMARK   38  A    between atoms: _116  and  _117
REMARK   39  A    between atoms: _117  and  _119
REMARK   40  A    between atoms: _119  and  ZN_385
REMARK   41  A    between atoms: _121  and  _122
REMARK   42  A    between atoms: _127  and  _129
REMARK   43  A    between atoms: _129  and  _130
REMARK   44  A    between atoms: _129  and  _132
REMARK   45  A    between atoms: _132  and  _133
REMARK   46  A    between atoms: _139  and  _141
REMARK   47  A    between atoms: _141  and  _142
REMARK   48  A    between atoms: _141  and  _144
REMARK   49  A    between atoms: _144  and  _145
REMARK   50  A    between atoms: _145  and  _146
REMARK   51  A    between atoms: _146  and  _147
REMARK   52  A    between atoms: _156  and  _158
REMARK   53  A    between atoms: _158  and  _159
REMARK   54  A    between atoms: _158  and  _161
REMARK   55  A    between atoms: _161  and  _162
REMARK   56  A    between atoms: _167  and  _168
REMARK   57  A    between atoms: _170  and  _172
REMARK   58  A    between atoms: _172  and  _173
REMARK   59  A    between atoms: _172  and  _175
REMARK   60  A    between atoms: _175  and  _176
REMARK   61  A    between atoms: _178  and  _180
REMARK   62  A    between atoms: _180  and  _181
REMARK   63  A    between atoms: _180  and  _183
REMARK   64  A    between atoms: _183  and  _184
REMARK   65  A    between atoms: _189  and  _190
REMARK   66  A    between atoms: _192  and  _194
REMARK   67  A    between atoms: _194  and  _195
REMARK   68  A    between atoms: _194  and  _197
REMARK   69  A    between atoms: _197  and  _198
REMARK   70  A    between atoms: _201  and  _203
REMARK   71  A    between atoms: _203  and  _204
REMARK   72  A    between atoms: _203  and  _206
REMARK   73  A    between atoms: _206  and  _207
REMARK   74  A    between atoms: _210  and  _212
REMARK   75  A    between atoms: _212  and  _213
REMARK   76  A    between atoms: _212  and  _215
REMARK   77  A    between atoms: _215  and  _216
REMARK   78  A    between atoms: _222  and  _224
REMARK   79  A    between atoms: _224  and  _225
REMARK   80  A    between atoms: _224  and  _227
REMARK   81  A    between atoms: _227  and  _228
REMARK   82  A    between atoms: _233  and  _234
REMARK   83  A    between atoms: _236  and  _238
REMARK   84  A    between atoms: _238  and  _239
REMARK   85  A    between atoms: _238  and  _241
REMARK   86  A    between atoms: _241  and  _242
REMARK   87  A    between atoms: _245  and  _247
REMARK   88  A    between atoms: _247  and  _248
REMARK   89  A    between atoms: _247  and  _250
REMARK   90  A    between atoms: _250  and  _251
REMARK   91  A    between atoms: _261  and  _263
REMARK   92  A    between atoms: _263  and  _264
REMARK   93  A    between atoms: _263  and  _266
REMARK   94  A    between atoms: _266  and  _267
REMARK   95  A    between atoms: _272  and  _274
REMARK   96  A    between atoms: _274  and  _275
REMARK   97  A    between atoms: _274  and  _277
REMARK   98  A    between atoms: _277  and  _278
REMARK   99  A    between atoms: _282  and  ZN_385
REMARK  100  A    between atoms: _283  and  _285
REMARK  101  A    between atoms: _285  and  _286
REMARK  102  A    between atoms: _285  and  _288
REMARK  103  A    between atoms: _288  and  _289
REMARK  104  A    between atoms: _292  and  _294
REMARK  105  A    between atoms: _294  and  _295
REMARK  106  A    between atoms: _297  and  _299
REMARK  107  A    between atoms: _299  and  _300
REMARK  108  A    between atoms: _299  and  _302
REMARK  109  A    between atoms: _302  and  _303
REMARK  110  A    between atoms: _306  and  _308
REMARK  111  A    between atoms: _308  and  _309
REMARK  112  A    between atoms: _308  and  _311
REMARK  113  A    between atoms: _311  and  _312
REMARK  114  A    between atoms: _315  and  _317
REMARK  115  A    between atoms: _317  and  _318
REMARK  116  A    between atoms: _321  and  _323
REMARK  117  A    between atoms: _323  and  _324
REMARK  118  A    between atoms: _323  and  _326
REMARK  119  A    between atoms: _326  and  _327
REMARK  120  A    between atoms: _332  and  _333
REMARK  121  A    between atoms: _335  and  _337
REMARK  122  A    between atoms: _337  and  _338
REMARK  123  A    between atoms: _337  and  _340
REMARK  124  A    between atoms: _340  and  _341
REMARK  125  A    between atoms: _344  and  _346
REMARK  126  A    between atoms: _346  and  _347
REMARK  127  A    between atoms: _346  and  _349
REMARK  128  A    between atoms: _349  and  _350
REMARK  129  A    between atoms: _350  and  _351
REMARK  130  A    between atoms: _354  and  _356
REMARK  131  A    between atoms: _356  and  _357
REMARK  132  A    between atoms: _356  and  _359
REMARK  133  A    between atoms: _359  and  _360
REMARK  134  A    between atoms: _360  and  _361
REMARK  135  A    between atoms: _361  and  _362
REMARK  136  A    between atoms: _371  and  _373
REMARK  137  A    between atoms: _373  and  _374
REMARK  138  A    between atoms: _376  and  _378
REMARK  139  A    between atoms: _378  and  _379
REMARK  140  A    between atoms: _378  and  _381
REMARK  141  A    between atoms: _381  and  _382
REMARK                            x       y       z     vdW  Elec       q    Type
REMARK                         _______ _______ _______ _____ _____    ______ ____
ROOT
ATOM      1  O   HOH     1      37.526  58.394  11.507  0.00  0.00    +0.000 OA
ENDROOT
TORSDOF 0
REMARK  Name = ../refined-set-2016/3d4y/3d4y_pocket.pdb
REMARK  141 active torsions:
REMARK  status: ('A' for Active; 'I' for Inactive)
REMARK    1  A    between atoms: _1  and  _3
REMARK    2  A    between atoms: _14  and  _17
REMARK    3  A    between atoms: _17  and  _18
REMARK    4  A    between atoms: _25  and  _26
REMARK    5  A    between atoms: _33  and  _34
REMARK    6  A    between atoms: _39  and  _41
REMARK    7  A    between atoms: _41  and  _42
REMARK    8  A    between atoms: _44  and  _46
REMARK    9  A    between atoms: _46  and  _47
REMARK   10  A    between atoms: _46  and  _49
REMARK   11  A    between atoms: _49  and  _50
REMARK   12  A    between atoms: _60  and  _62
REMARK   13  A    between atoms: _62  and  _63
REMARK   14  A    between atoms: _62  and  _65
REMARK   15  A    between atoms: _65  and  _66
REMARK   16  A    between atoms: _69  and  _71
REMARK   17  A    between atoms: _71  and  _72
REMARK   18  A    between atoms: _71  and  _74
REMARK   19  A    between atoms: _74  and  _75
REMARK   20  A    between atoms: _80  and  _81
REMARK   21  A    between atoms: _83  and  _85
REMARK   22  A    between atoms: _85  and  _86
REMARK   23  A    between atoms: _85  and  _88
REMARK   24  A    between atoms: _88  and  _89
REMARK   25  A    between atoms: _89  and  _90
REMARK   26  A    between atoms: _93  and  _95
REMARK   27  A    between atoms: _95  and  _96
REMARK   28  A    between atoms: _95  and  _98
REMARK   29  A    between atoms: _98  and  _99
REMARK   30  A    between atoms: _99  and  _100
REMARK   31  A    between atoms: _102  and  _104
REMARK   32  A    between atoms: _104  and  _105
REMARK   33  A    between atoms: _104  and  _107
REMARK   34  A    between atoms: _107  and  _108
REMARK   35  A    between atoms: _111  and  _113
REMARK   36  A    between atoms: _113  and  _114
REMARK   37  A    between atoms: _113  and  _116
REMARK   38  A    between atoms: _116  and  _117
REMARK   39  A    between atoms: _117  and  _119
REMARK   40  A    between atoms: _119  and  ZN_385
REMARK   41  A    between atoms: _121  and  _122
REMARK   42  A    between atoms: _127  and  _129
REMARK   43  A    between atoms: _129  and  _130
REMARK   44  A    between atoms: _129  and  _132
REMARK   45  A    between atoms: _132  and  _133
REMARK   46  A    between atoms: _139  and  _141
REMARK   47  A    between atoms: _141  and  _142
REMARK   48  A    between atoms: _141  and  _144
REMARK   49  A    between atoms: _144  and  _145
REMARK   50  A    between atoms: _145  and  _146
REMARK   51  A    between atoms: _146  and  _147
REMARK   52  A    between atoms: _156  and  _158
REMARK   53  A    between atoms: _158  and  _159
REMARK   54  A    between atoms: _158  and  _161
REMARK   55  A    between atoms: _161  and  _162
REMARK   56  A    between atoms: _167  and  _168
REMARK   57  A    between atoms: _170  and  _172
REMARK   58  A    between atoms: _172  and  _173
REMARK   59  A    between atoms: _172  and  _175
REMARK   60  A    between atoms: _175  and  _176
REMARK   61  A    between atoms: _178  and  _180
REMARK   62  A    between atoms: _180  and  _181
REMARK   63  A    between atoms: _180  and  _183
REMARK   64  A    between atoms: _183  and  _184
REMARK   65  A    between atoms: _189  and  _190
REMARK   66  A    between atoms: _192  and  _194
REMARK   67  A    between atoms: _194  and  _195
REMARK   68  A    between atoms: _194  and  _197
REMARK   69  A    between atoms: _197  and  _198
REMARK   70  A    between atoms: _201  and  _203
REMARK   71  A    between atoms: _203  and  _204
REMARK   72  A    between atoms: _203  and  _206
REMARK   73  A    between atoms: _206  and  _207
REMARK   74  A    between atoms: _210  and  _212
REMARK   75  A    between atoms: _212  and  _213
REMARK   76  A    between atoms: _212  and  _215
REMARK   77  A    between atoms: _215  and  _216
REMARK   78  A    between atoms: _222  and  _224
REMARK   79  A    between atoms: _224  and  _225
REMARK   80  A    between atoms: _224  and  _227
REMARK   81  A    between atoms: _227  and  _228
REMARK   82  A    between atoms: _233  and  _234
REMARK   83  A    between atoms: _236  and  _238
REMARK   84  A    between atoms: _238  and  _239
REMARK   85  A    between atoms: _238  and  _241
REMARK   86  A    between atoms: _241  and  _242
REMARK   87  A    between atoms: _245  and  _247
REMARK   88  A    between atoms: _247  and  _248
REMARK   89  A    between atoms: _247  and  _250
REMARK   90  A    between atoms: _250  and  _251
REMARK   91  A    between atoms: _261  and  _263
REMARK   92  A    between atoms: _263  and  _264
REMARK   93  A    between atoms: _263  and  _266
REMARK   94  A    between atoms: _266  and  _267
REMARK   95  A    between atoms: _272  and  _274
REMARK   96  A    between atoms: _274  and  _275
REMARK   97  A    between atoms: _274  and  _277
REMARK   98  A    between atoms: _277  and  _278
REMARK   99  A    between atoms: _282  and  ZN_385
REMARK  100  A    between atoms: _283  and  _285
REMARK  101  A    between atoms: _285  and  _286
REMARK  102  A    between atoms: _285  and  _288
REMARK  103  A    between atoms: _288  and  _289
REMARK  104  A    between atoms: _292  and  _294
REMARK  105  A    between atoms: _294  and  _295
REMARK  106  A    between atoms: _297  and  _299
REMARK  107  A    between atoms: _299  and  _300
REMARK  108  A    between atoms: _299  and  _302
REMARK  109  A    between atoms: _302  and  _303
REMARK  110  A    between atoms: _306  and  _308
REMARK  111  A    between atoms: _308  and  _309
REMARK  112  A    between atoms: _308  and  _311
REMARK  113  A    between atoms: _311  and  _312
REMARK  114  A    between atoms: _315  and  _317
REMARK  115  A    between atoms: _317  and  _318
REMARK  116  A    between atoms: _321  and  _323
REMARK  117  A    between atoms: _323  and  _324
REMARK  118  A    between atoms: _323  and  _326
REMARK  119  A    between atoms: _326  and  _327
REMARK  120  A    between atoms: _332  and  _333
REMARK  121  A    between atoms: _335  and  _337
REMARK  122  A    between atoms: _337  and  _338
REMARK  123  A    between atoms: _337  and  _340
REMARK  124  A    between atoms: _340  and  _341
REMARK  125  A    between atoms: _344  and  _346
REMARK  126  A    between atoms: _346  and  _347
REMARK  127  A    between atoms: _346  and  _349
REMARK  128  A    between atoms: _349  and  _350
REMARK  129  A    between atoms: _350  and  _351
REMARK  130  A    between atoms: _354  and  _356
REMARK  131  A    between atoms: _356  and  _357
REMARK  132  A    between atoms: _356  and  _359
REMARK  133  A    between atoms: _359  and  _360
REMARK  134  A    between atoms: _360  and  _361
REMARK  135  A    between atoms: _361  and  _362
REMARK  136  A    between atoms: _371  and  _373
REMARK  137  A    between atoms: _373  and  _374
REMARK  138  A    between atoms: _376  and  _378
REMARK  139  A    between atoms: _378  and  _379
REMARK  140  A    between atoms: _378  and  _381
REMARK  141  A    between atoms: _381  and  _382
REMARK                            x       y       z     vdW  Elec       q    Type
REMARK                         _______ _______ _______ _____ _____    ______ ____
ROOT
ATOM      1  O   HOH     1      38.653  61.780   8.956  0.00  0.00    +0.000 OA
ENDROOT
TORSDOF 0
REMARK  Name = ../refined-set-2016/3d4y/3d4y_pocket.pdb
REMARK  141 active torsions:
REMARK  status: ('A' for Active; 'I' for Inactive)
REMARK    1  A    between atoms: _1  and  _3
REMARK    2  A    between atoms: _14  and  _17
REMARK    3  A    between atoms: _17  and  _18
REMARK    4  A    between atoms: _25  and  _26
REMARK    5  A    between atoms: _33  and  _34
REMARK    6  A    between atoms: _39  and  _41
REMARK    7  A    between atoms: _41  and  _42
REMARK    8  A    between atoms: _44  and  _46
REMARK    9  A    between atoms: _46  and  _47
REMARK   10  A    between atoms: _46  and  _49
REMARK   11  A    between atoms: _49  and  _50
REMARK   12  A    between atoms: _60  and  _62
REMARK   13  A    between atoms: _62  and  _63
REMARK   14  A    between atoms: _62  and  _65
REMARK   15  A    between atoms: _65  and  _66
REMARK   16  A    between atoms: _69  and  _71
REMARK   17  A    between atoms: _71  and  _72
REMARK   18  A    between atoms: _71  and  _74
REMARK   19  A    between atoms: _74  and  _75
REMARK   20  A    between atoms: _80  and  _81
REMARK   21  A    between atoms: _83  and  _85
REMARK   22  A    between atoms: _85  and  _86
REMARK   23  A    between atoms: _85  and  _88
REMARK   24  A    between atoms: _88  and  _89
REMARK   25  A    between atoms: _89  and  _90
REMARK   26  A    between atoms: _93  and  _95
REMARK   27  A    between atoms: _95  and  _96
REMARK   28  A    between atoms: _95  and  _98
REMARK   29  A    between atoms: _98  and  _99
REMARK   30  A    between atoms: _99  and  _100
REMARK   31  A    between atoms: _102  and  _104
REMARK   32  A    between atoms: _104  and  _105
REMARK   33  A    between atoms: _104  and  _107
REMARK   34  A    between atoms: _107  and  _108
REMARK   35  A    between atoms: _111  and  _113
REMARK   36  A    between atoms: _113  and  _114
REMARK   37  A    between atoms: _113  and  _116
REMARK   38  A    between atoms: _116  and  _117
REMARK   39  A    between atoms: _117  and  _119
REMARK   40  A    between atoms: _119  and  ZN_385
REMARK   41  A    between atoms: _121  and  _122
REMARK   42  A    between atoms: _127  and  _129
REMARK   43  A    between atoms: _129  and  _130
REMARK   44  A    between atoms: _129  and  _132
REMARK   45  A    between atoms: _132  and  _133
REMARK   46  A    between atoms: _139  and  _141
REMARK   47  A    between atoms: _141  and  _142
REMARK   48  A    between atoms: _141  and  _144
REMARK   49  A    between atoms: _144  and  _145
REMARK   50  A    between atoms: _145  and  _146
REMARK   51  A    between atoms: _146  and  _147
REMARK   52  A    between atoms: _156  and  _158
REMARK   53  A    between atoms: _158  and  _159
REMARK   54  A    between atoms: _158  and  _161
REMARK   55  A    between atoms: _161  and  _162
REMARK   56  A    between atoms: _167  and  _168
REMARK   57  A    between atoms: _170  and  _172
REMARK   58  A    between atoms: _172  and  _173
REMARK   59  A    between atoms: _172  and  _175
REMARK   60  A    between atoms: _175  and  _176
REMARK   61  A    between atoms: _178  and  _180
REMARK   62  A    between atoms: _180  and  _181
REMARK   63  A    between atoms: _180  and  _183
REMARK   64  A    between atoms: _183  and  _184
REMARK   65  A    between atoms: _189  and  _190
REMARK   66  A    between atoms: _192  and  _194
REMARK   67  A    between atoms: _194  and  _195
REMARK   68  A    between atoms: _194  and  _197
REMARK   69  A    between atoms: _197  and  _198
REMARK   70  A    between atoms: _201  and  _203
REMARK   71  A    between atoms: _203  and  _204
REMARK   72  A    between atoms: _203  and  _206
REMARK   73  A    between atoms: _206  and  _207
REMARK   74  A    between atoms: _210  and  _212
REMARK   75  A    between atoms: _212  and  _213
REMARK   76  A    between atoms: _212  and  _215
REMARK   77  A    between atoms: _215  and  _216
REMARK   78  A    between atoms: _222  and  _224
REMARK   79  A    between atoms: _224  and  _225
REMARK   80  A    between atoms: _224  and  _227
REMARK   81  A    between atoms: _227  and  _228
REMARK   82  A    between atoms: _233  and  _234
REMARK   83  A    between atoms: _236  and  _238
REMARK   84  A    between atoms: _238  and  _239
REMARK   85  A    between atoms: _238  and  _241
REMARK   86  A    between atoms: _241  and  _242
REMARK   87  A    between atoms: _245  and  _247
REMARK   88  A    between atoms: _247  and  _248
REMARK   89  A    between atoms: _247  and  _250
REMARK   90  A    between atoms: _250  and  _251
REMARK   91  A    between atoms: _261  and  _263
REMARK   92  A    between atoms: _263  and  _264
REMARK   93  A    between atoms: _263  and  _266
REMARK   94  A    between atoms: _266  and  _267
REMARK   95  A    between atoms: _272  and  _274
REMARK   96  A    between atoms: _274  and  _275
REMARK   97  A    between atoms: _274  and  _277
REMARK   98  A    between atoms: _277  and  _278
REMARK   99  A    between atoms: _282  and  ZN_385
REMARK  100  A    between atoms: _283  and  _285
REMARK  101  A    between atoms: _285  and  _286
REMARK  102  A    between atoms: _285  and  _288
REMARK  103  A    between atoms: _288  and  _289
REMARK  104  A    between atoms: _292  and  _294
REMARK  105  A    between atoms: _294  and  _295
REMARK  106  A    between atoms: _297  and  _299
REMARK  107  A    between atoms: _299  and  _300
REMARK  108  A    between atoms: _299  and  _302
REMARK  109  A    between atoms: _302  and  _303
REMARK  110  A    between atoms: _306  and  _308
REMARK  111  A    between atoms: _308  and  _309
REMARK  112  A    between atoms: _308  and  _311
REMARK  113  A    between atoms: _311  and  _312
REMARK  114  A    between atoms: _315  and  _317
REMARK  115  A    between atoms: _317  and  _318
REMARK  116  A    between atoms: _321  and  _323
REMARK  117  A    between atoms: _323  and  _324
REMARK  118  A    between atoms: _323  and  _326
REMARK  119  A    between atoms: _326  and  _327
REMARK  120  A    between atoms: _332  and  _333
REMARK  121  A    between atoms: _335  and  _337
REMARK  122  A    between atoms: _337  and  _338
REMARK  123  A    between atoms: _337  and  _340
REMARK  124  A    between atoms: _340  and  _341
REMARK  125  A    between atoms: _344  and  _346
REMARK  126  A    between atoms: _346  and  _347
REMARK  127  A    between atoms: _346  and  _349
REMARK  128  A    between atoms: _349  and  _350
REMARK  129  A    between atoms: _350  and  _351
REMARK  130  A    between atoms: _354  and  _356
REMARK  131  A    between atoms: _356  and  _357
REMARK  132  A    between atoms: _356  and  _359
REMARK  133  A    between atoms: _359  and  _360
REMARK  134  A    between atoms: _360  and  _361
REMARK  135  A    between atoms: _361  and  _362
REMARK  136  A    between atoms: _371  and  _373
REMARK  137  A    between atoms: _373  and  _374
REMARK  138  A    between atoms: _376  and  _378
REMARK  139  A    between atoms: _378  and  _379
REMARK  140  A    between atoms: _378  and  _381
REMARK  141  A    between atoms: _381  and  _382
REMARK                            x       y       z     vdW  Elec       q    Type
REMARK                         _______ _______ _______ _____ _____    ______ ____
ROOT
ATOM      1  O   HOH     1      40.043  62.162   6.703  0.00  0.00    +0.000 OA
ENDROOT
TORSDOF 0
REMARK  Name = ../refined-set-2016/3d4y/3d4y_pocket.pdb
REMARK  141 active torsions:
REMARK  status: ('A' for Active; 'I' for Inactive)
REMARK    1  A    between atoms: _1  and  _3
REMARK    2  A    between atoms: _14  and  _17
REMARK    3  A    between atoms: _17  and  _18
REMARK    4  A    between atoms: _25  and  _26
REMARK    5  A    between atoms: _33  and  _34
REMARK    6  A    between atoms: _39  and  _41
REMARK    7  A    between atoms: _41  and  _42
REMARK    8  A    between atoms: _44  and  _46
REMARK    9  A    between atoms: _46  and  _47
REMARK   10  A    between atoms: _46  and  _49
REMARK   11  A    between atoms: _49  and  _50
REMARK   12  A    between atoms: _60  and  _62
REMARK   13  A    between atoms: _62  and  _63
REMARK   14  A    between atoms: _62  and  _65
REMARK   15  A    between atoms: _65  and  _66
REMARK   16  A    between atoms: _69  and  _71
REMARK   17  A    between atoms: _71  and  _72
REMARK   18  A    between atoms: _71  and  _74
REMARK   19  A    between atoms: _74  and  _75
REMARK   20  A    between atoms: _80  and  _81
REMARK   21  A    between atoms: _83  and  _85
REMARK   22  A    between atoms: _85  and  _86
REMARK   23  A    between atoms: _85  and  _88
REMARK   24  A    between atoms: _88  and  _89
REMARK   25  A    between atoms: _89  and  _90
REMARK   26  A    between atoms: _93  and  _95
REMARK   27  A    between atoms: _95  and  _96
REMARK   28  A    between atoms: _95  and  _98
REMARK   29  A    between atoms: _98  and  _99
REMARK   30  A    between atoms: _99  and  _100
REMARK   31  A    between atoms: _102  and  _104
REMARK   32  A    between atoms: _104  and  _105
REMARK   33  A    between atoms: _104  and  _107
REMARK   34  A    between atoms: _107  and  _108
REMARK   35  A    between atoms: _111  and  _113
REMARK   36  A    between atoms: _113  and  _114
REMARK   37  A    between atoms: _113  and  _116
REMARK   38  A    between atoms: _116  and  _117
REMARK   39  A    between atoms: _117  and  _119
REMARK   40  A    between atoms: _119  and  ZN_385
REMARK   41  A    between atoms: _121  and  _122
REMARK   42  A    between atoms: _127  and  _129
REMARK   43  A    between atoms: _129  and  _130
REMARK   44  A    between atoms: _129  and  _132
REMARK   45  A    between atoms: _132  and  _133
REMARK   46  A    between atoms: _139  and  _141
REMARK   47  A    between atoms: _141  and  _142
REMARK   48  A    between atoms: _141  and  _144
REMARK   49  A    between atoms: _144  and  _145
REMARK   50  A    between atoms: _145  and  _146
REMARK   51  A    between atoms: _146  and  _147
REMARK   52  A    between atoms: _156  and  _158
REMARK   53  A    between atoms: _158  and  _159
REMARK   54  A    between atoms: _158  and  _161
REMARK   55  A    between atoms: _161  and  _162
REMARK   56  A    between atoms: _167  and  _168
REMARK   57  A    between atoms: _170  and  _172
REMARK   58  A    between atoms: _172  and  _173
REMARK   59  A    between atoms: _172  and  _175
REMARK   60  A    between atoms: _175  and  _176
REMARK   61  A    between atoms: _178  and  _180
REMARK   62  A    between atoms: _180  and  _181
REMARK   63  A    between atoms: _180  and  _183
REMARK   64  A    between atoms: _183  and  _184
REMARK   65  A    between atoms: _189  and  _190
REMARK   66  A    between atoms: _192  and  _194
REMARK   67  A    between atoms: _194  and  _195
REMARK   68  A    between atoms: _194  and  _197
REMARK   69  A    between atoms: _197  and  _198
REMARK   70  A    between atoms: _201  and  _203
REMARK   71  A    between atoms: _203  and  _204
REMARK   72  A    between atoms: _203  and  _206
REMARK   73  A    between atoms: _206  and  _207
REMARK   74  A    between atoms: _210  and  _212
REMARK   75  A    between atoms: _212  and  _213
REMARK   76  A    between atoms: _212  and  _215
REMARK   77  A    between atoms: _215  and  _216
REMARK   78  A    between atoms: _222  and  _224
REMARK   79  A    between atoms: _224  and  _225
REMARK   80  A    between atoms: _224  and  _227
REMARK   81  A    between atoms: _227  and  _228
REMARK   82  A    between atoms: _233  and  _234
REMARK   83  A    between atoms: _236  and  _238
REMARK   84  A    between atoms: _238  and  _239
REMARK   85  A    between atoms: _238  and  _241
REMARK   86  A    between atoms: _241  and  _242
REMARK   87  A    between atoms: _245  and  _247
REMARK   88  A    between atoms: _247  and  _248
REMARK   89  A    between atoms: _247  and  _250
REMARK   90  A    between atoms: _250  and  _251
REMARK   91  A    between atoms: _261  and  _263
REMARK   92  A    between atoms: _263  and  _264
REMARK   93  A    between atoms: _263  and  _266
REMARK   94  A    between atoms: _266  and  _267
REMARK   95  A    between atoms: _272  and  _274
REMARK   96  A    between atoms: _274  and  _275
REMARK   97  A    between atoms: _274  and  _277
REMARK   98  A    between atoms: _277  and  _278
REMARK   99  A    between atoms: _282  and  ZN_385
REMARK  100  A    between atoms: _283  and  _285
REMARK  101  A    between atoms: _285  and  _286
REMARK  102  A    between atoms: _285  and  _288
REMARK  103  A    between atoms: _288  and  _289
REMARK  104  A    between atoms: _292  and  _294
REMARK  105  A    between atoms: _294  and  _295
REMARK  106  A    between atoms: _297  and  _299
REMARK  107  A    between atoms: _299  and  _300
REMARK  108  A    between atoms: _299  and  _302
REMARK  109  A    between atoms: _302  and  _303
REMARK  110  A    between atoms: _306  and  _308
REMARK  111  A    between atoms: _308  and  _309
REMARK  112  A    between atoms: _308  and  _311
REMARK  113  A    between atoms: _311  and  _312
REMARK  114  A    between atoms: _315  and  _317
REMARK  115  A    between atoms: _317  and  _318
REMARK  116  A    between atoms: _321  and  _323
REMARK  117  A    between atoms: _323  and  _324
REMARK  118  A    between atoms: _323  and  _326
REMARK  119  A    between atoms: _326  and  _327
REMARK  120  A    between atoms: _332  and  _333
REMARK  121  A    between atoms: _335  and  _337
REMARK  122  A    between atoms: _337  and  _338
REMARK  123  A    between atoms: _337  and  _340
REMARK  124  A    between atoms: _340  and  _341
REMARK  125  A    between atoms: _344  and  _346
REMARK  126  A    between atoms: _346  and  _347
REMARK  127  A    between atoms: _346  and  _349
REMARK  128  A    between atoms: _349  and  _350
REMARK  129  A    between atoms: _350  and  _351
REMARK  130  A    between atoms: _354  and  _356
REMARK  131  A    between atoms: _356  and  _357
REMARK  132  A    between atoms: _356  and  _359
REMARK  133  A    between atoms: _359  and  _360
REMARK  134  A    between atoms: _360  and  _361
REMARK  135  A    between atoms: _361  and  _362
REMARK  136  A    between atoms: _371  and  _373
REMARK  137  A    between atoms: _373  and  _374
REMARK  138  A    between atoms: _376  and  _378
REMARK  139  A    between atoms: _378  and  _379
REMARK  140  A    between atoms: _378  and  _381
REMARK  141  A    between atoms: _381  and  _382
REMARK                            x       y       z     vdW  Elec       q    Type
REMARK                         _______ _______ _______ _____ _____    ______ ____
ROOT
ATOM      1  O   HOH     1      28.701  62.716  14.047  0.00  0.00    +0.000 OA
ENDROOT
TORSDOF 0
REMARK  Name = ../refined-set-2016/3d4y/3d4y_pocket.pdb
REMARK  141 active torsions:
REMARK  status: ('A' for Active; 'I' for Inactive)
REMARK    1  A    between atoms: _1  and  _3
REMARK    2  A    between atoms: _14  and  _17
REMARK    3  A    between atoms: _17  and  _18
REMARK    4  A    between atoms: _25  and  _26
REMARK    5  A    between atoms: _33  and  _34
REMARK    6  A    between atoms: _39  and  _41
REMARK    7  A    between atoms: _41  and  _42
REMARK    8  A    between atoms: _44  and  _46
REMARK    9  A    between atoms: _46  and  _47
REMARK   10  A    between atoms: _46  and  _49
REMARK   11  A    between atoms: _49  and  _50
REMARK   12  A    between atoms: _60  and  _62
REMARK   13  A    between atoms: _62  and  _63
REMARK   14  A    between atoms: _62  and  _65
REMARK   15  A    between atoms: _65  and  _66
REMARK   16  A    between atoms: _69  and  _71
REMARK   17  A    between atoms: _71  and  _72
REMARK   18  A    between atoms: _71  and  _74
REMARK   19  A    between atoms: _74  and  _75
REMARK   20  A    between atoms: _80  and  _81
REMARK   21  A    between atoms: _83  and  _85
REMARK   22  A    between atoms: _85  and  _86
REMARK   23  A    between atoms: _85  and  _88
REMARK   24  A    between atoms: _88  and  _89
REMARK   25  A    between atoms: _89  and  _90
REMARK   26  A    between atoms: _93  and  _95
REMARK   27  A    between atoms: _95  and  _96
REMARK   28  A    between atoms: _95  and  _98
REMARK   29  A    between atoms: _98  and  _99
REMARK   30  A    between atoms: _99  and  _100
REMARK   31  A    between atoms: _102  and  _104
REMARK   32  A    between atoms: _104  and  _105
REMARK   33  A    between atoms: _104  and  _107
REMARK   34  A    between atoms: _107  and  _108
REMARK   35  A    between atoms: _111  and  _113
REMARK   36  A    between atoms: _113  and  _114
REMARK   37  A    between atoms: _113  and  _116
REMARK   38  A    between atoms: _116  and  _117
REMARK   39  A    between atoms: _117  and  _119
REMARK   40  A    between atoms: _119  and  ZN_385
REMARK   41  A    between atoms: _121  and  _122
REMARK   42  A    between atoms: _127  and  _129
REMARK   43  A    between atoms: _129  and  _130
REMARK   44  A    between atoms: _129  and  _132
REMARK   45  A    between atoms: _132  and  _133
REMARK   46  A    between atoms: _139  and  _141
REMARK   47  A    between atoms: _141  and  _142
REMARK   48  A    between atoms: _141  and  _144
REMARK   49  A    between atoms: _144  and  _145
REMARK   50  A    between atoms: _145  and  _146
REMARK   51  A    between atoms: _146  and  _147
REMARK   52  A    between atoms: _156  and  _158
REMARK   53  A    between atoms: _158  and  _159
REMARK   54  A    between atoms: _158  and  _161
REMARK   55  A    between atoms: _161  and  _162
REMARK   56  A    between atoms: _167  and  _168
REMARK   57  A    between atoms: _170  and  _172
REMARK   58  A    between atoms: _172  and  _173
REMARK   59  A    between atoms: _172  and  _175
REMARK   60  A    between atoms: _175  and  _176
REMARK   61  A    between atoms: _178  and  _180
REMARK   62  A    between atoms: _180  and  _181
REMARK   63  A    between atoms: _180  and  _183
REMARK   64  A    between atoms: _183  and  _184
REMARK   65  A    between atoms: _189  and  _190
REMARK   66  A    between atoms: _192  and  _194
REMARK   67  A    between atoms: _194  and  _195
REMARK   68  A    between atoms: _194  and  _197
REMARK   69  A    between atoms: _197  and  _198
REMARK   70  A    between atoms: _201  and  _203
REMARK   71  A    between atoms: _203  and  _204
REMARK   72  A    between atoms: _203  and  _206
REMARK   73  A    between atoms: _206  and  _207
REMARK   74  A    between atoms: _210  and  _212
REMARK   75  A    between atoms: _212  and  _213
REMARK   76  A    between atoms: _212  and  _215
REMARK   77  A    between atoms: _215  and  _216
REMARK   78  A    between atoms: _222  and  _224
REMARK   79  A    between atoms: _224  and  _225
REMARK   80  A    between atoms: _224  and  _227
REMARK   81  A    between atoms: _227  and  _228
REMARK   82  A    between atoms: _233  and  _234
REMARK   83  A    between atoms: _236  and  _238
REMARK   84  A    between atoms: _238  and  _239
REMARK   85  A    between atoms: _238  and  _241
REMARK   86  A    between atoms: _241  and  _242
REMARK   87  A    between atoms: _245  and  _247
REMARK   88  A    between atoms: _247  and  _248
REMARK   89  A    between atoms: _247  and  _250
REMARK   90  A    between atoms: _250  and  _251
REMARK   91  A    between atoms: _261  and  _263
REMARK   92  A    between atoms: _263  and  _264
REMARK   93  A    between atoms: _263  and  _266
REMARK   94  A    between atoms: _266  and  _267
REMARK   95  A    between atoms: _272  and  _274
REMARK   96  A    between atoms: _274  and  _275
REMARK   97  A    between atoms: _274  and  _277
REMARK   98  A    between atoms: _277  and  _278
REMARK   99  A    between atoms: _282  and  ZN_385
REMARK  100  A    between atoms: _283  and  _285
REMARK  101  A    between atoms: _285  and  _286
REMARK  102  A    between atoms: _285  and  _288
REMARK  103  A    between atoms: _288  and  _289
REMARK  104  A    between atoms: _292  and  _294
REMARK  105  A    between atoms: _294  and  _295
REMARK  106  A    between atoms: _297  and  _299
REMARK  107  A    between atoms: _299  and  _300
REMARK  108  A    between atoms: _299  and  _302
REMARK  109  A    between atoms: _302  and  _303
REMARK  110  A    between atoms: _306  and  _308
REMARK  111  A    between atoms: _308  and  _309
REMARK  112  A    between atoms: _308  and  _311
REMARK  113  A    between atoms: _311  and  _312
REMARK  114  A    between atoms: _315  and  _317
REMARK  115  A    between atoms: _317  and  _318
REMARK  116  A    between atoms: _321  and  _323
REMARK  117  A    between atoms: _323  and  _324
REMARK  118  A    between atoms: _323  and  _326
REMARK  119  A    between atoms: _326  and  _327
REMARK  120  A    between atoms: _332  and  _333
REMARK  121  A    between atoms: _335  and  _337
REMARK  122  A    between atoms: _337  and  _338
REMARK  123  A    between atoms: _337  and  _340
REMARK  124  A    between atoms: _340  and  _341
REMARK  125  A    between atoms: _344  and  _346
REMARK  126  A    between atoms: _346  and  _347
REMARK  127  A    between atoms: _346  and  _349
REMARK  128  A    between atoms: _349  and  _350
REMARK  129  A    between atoms: _350  and  _351
REMARK  130  A    between atoms: _354  and  _356
REMARK  131  A    between atoms: _356  and  _357
REMARK  132  A    between atoms: _356  and  _359
REMARK  133  A    between atoms: _359  and  _360
REMARK  134  A    between atoms: _360  and  _361
REMARK  135  A    between atoms: _361  and  _362
REMARK  136  A    between atoms: _371  and  _373
REMARK  137  A    between atoms: _373  and  _374
REMARK  138  A    between atoms: _376  and  _378
REMARK  139  A    between atoms: _378  and  _379
REMARK  140  A    between atoms: _378  and  _381
REMARK  141  A    between atoms: _381  and  _382
REMARK                            x       y       z     vdW  Elec       q    Type
REMARK                         _______ _______ _______ _____ _____    ______ ____
ROOT
ATOM      1  O   HOH     1      34.049  67.078  13.167  0.00  0.00    +0.000 OA
ENDROOT
TORSDOF 0
REMARK  Name = ../refined-set-2016/3d4y/3d4y_pocket.pdb
REMARK  141 active torsions:
REMARK  status: ('A' for Active; 'I' for Inactive)
REMARK    1  A    between atoms: _1  and  _3
REMARK    2  A    between atoms: _14  and  _17
REMARK    3  A    between atoms: _17  and  _18
REMARK    4  A    between atoms: _25  and  _26
REMARK    5  A    between atoms: _33  and  _34
REMARK    6  A    between atoms: _39  and  _41
REMARK    7  A    between atoms: _41  and  _42
REMARK    8  A    between atoms: _44  and  _46
REMARK    9  A    between atoms: _46  and  _47
REMARK   10  A    between atoms: _46  and  _49
REMARK   11  A    between atoms: _49  and  _50
REMARK   12  A    between atoms: _60  and  _62
REMARK   13  A    between atoms: _62  and  _63
REMARK   14  A    between atoms: _62  and  _65
REMARK   15  A    between atoms: _65  and  _66
REMARK   16  A    between atoms: _69  and  _71
REMARK   17  A    between atoms: _71  and  _72
REMARK   18  A    between atoms: _71  and  _74
REMARK   19  A    between atoms: _74  and  _75
REMARK   20  A    between atoms: _80  and  _81
REMARK   21  A    between atoms: _83  and  _85
REMARK   22  A    between atoms: _85  and  _86
REMARK   23  A    between atoms: _85  and  _88
REMARK   24  A    between atoms: _88  and  _89
REMARK   25  A    between atoms: _89  and  _90
REMARK   26  A    between atoms: _93  and  _95
REMARK   27  A    between atoms: _95  and  _96
REMARK   28  A    between atoms: _95  and  _98
REMARK   29  A    between atoms: _98  and  _99
REMARK   30  A    between atoms: _99  and  _100
REMARK   31  A    between atoms: _102  and  _104
REMARK   32  A    between atoms: _104  and  _105
REMARK   33  A    between atoms: _104  and  _107
REMARK   34  A    between atoms: _107  and  _108
REMARK   35  A    between atoms: _111  and  _113
REMARK   36  A    between atoms: _113  and  _114
REMARK   37  A    between atoms: _113  and  _116
REMARK   38  A    between atoms: _116  and  _117
REMARK   39  A    between atoms: _117  and  _119
REMARK   40  A    between atoms: _119  and  ZN_385
REMARK   41  A    between atoms: _121  and  _122
REMARK   42  A    between atoms: _127  and  _129
REMARK   43  A    between atoms: _129  and  _130
REMARK   44  A    between atoms: _129  and  _132
REMARK   45  A    between atoms: _132  and  _133
REMARK   46  A    between atoms: _139  and  _141
REMARK   47  A    between atoms: _141  and  _142
REMARK   48  A    between atoms: _141  and  _144
REMARK   49  A    between atoms: _144  and  _145
REMARK   50  A    between atoms: _145  and  _146
REMARK   51  A    between atoms: _146  and  _147
REMARK   52  A    between atoms: _156  and  _158
REMARK   53  A    between atoms: _158  and  _159
REMARK   54  A    between atoms: _158  and  _161
REMARK   55  A    between atoms: _161  and  _162
REMARK   56  A    between atoms: _167  and  _168
REMARK   57  A    between atoms: _170  and  _172
REMARK   58  A    between atoms: _172  and  _173
REMARK   59  A    between atoms: _172  and  _175
REMARK   60  A    between atoms: _175  and  _176
REMARK   61  A    between atoms: _178  and  _180
REMARK   62  A    between atoms: _180  and  _181
REMARK   63  A    between atoms: _180  and  _183
REMARK   64  A    between atoms: _183  and  _184
REMARK   65  A    between atoms: _189  and  _190
REMARK   66  A    between atoms: _192  and  _194
REMARK   67  A    between atoms: _194  and  _195
REMARK   68  A    between atoms: _194  and  _197
REMARK   69  A    between atoms: _197  and  _198
REMARK   70  A    between atoms: _201  and  _203
REMARK   71  A    between atoms: _203  and  _204
REMARK   72  A    between atoms: _203  and  _206
REMARK   73  A    between atoms: _206  and  _207
REMARK   74  A    between atoms: _210  and  _212
REMARK   75  A    between atoms: _212  and  _213
REMARK   76  A    between atoms: _212  and  _215
REMARK   77  A    between atoms: _215  and  _216
REMARK   78  A    between atoms: _222  and  _224
REMARK   79  A    between atoms: _224  and  _225
REMARK   80  A    between atoms: _224  and  _227
REMARK   81  A    between atoms: _227  and  _228
REMARK   82  A    between atoms: _233  and  _234
REMARK   83  A    between atoms: _236  and  _238
REMARK   84  A    between atoms: _238  and  _239
REMARK   85  A    between atoms: _238  and  _241
REMARK   86  A    between atoms: _241  and  _242
REMARK   87  A    between atoms: _245  and  _247
REMARK   88  A    between atoms: _247  and  _248
REMARK   89  A    between atoms: _247  and  _250
REMARK   90  A    between atoms: _250  and  _251
REMARK   91  A    between atoms: _261  and  _263
REMARK   92  A    between atoms: _263  and  _264
REMARK   93  A    between atoms: _263  and  _266
REMARK   94  A    between atoms: _266  and  _267
REMARK   95  A    between atoms: _272  and  _274
REMARK   96  A    between atoms: _274  and  _275
REMARK   97  A    between atoms: _274  and  _277
REMARK   98  A    between atoms: _277  and  _278
REMARK   99  A    between atoms: _282  and  ZN_385
REMARK  100  A    between atoms: _283  and  _285
REMARK  101  A    between atoms: _285  and  _286
REMARK  102  A    between atoms: _285  and  _288
REMARK  103  A    between atoms: _288  and  _289
REMARK  104  A    between atoms: _292  and  _294
REMARK  105  A    between atoms: _294  and  _295
REMARK  106  A    between atoms: _297  and  _299
REMARK  107  A    between atoms: _299  and  _300
REMARK  108  A    between atoms: _299  and  _302
REMARK  109  A    between atoms: _302  and  _303
REMARK  110  A    between atoms: _306  and  _308
REMARK  111  A    between atoms: _308  and  _309
REMARK  112  A    between atoms: _308  and  _311
REMARK  113  A    between atoms: _311  and  _312
REMARK  114  A    between atoms: _315  and  _317
REMARK  115  A    between atoms: _317  and  _318
REMARK  116  A    between atoms: _321  and  _323
REMARK  117  A    between atoms: _323  and  _324
REMARK  118  A    between atoms: _323  and  _326
REMARK  119  A    between atoms: _326  and  _327
REMARK  120  A    between atoms: _332  and  _333
REMARK  121  A    between atoms: _335  and  _337
REMARK  122  A    between atoms: _337  and  _338
REMARK  123  A    between atoms: _337  and  _340
REMARK  124  A    between atoms: _340  and  _341
REMARK  125  A    between atoms: _344  and  _346
REMARK  126  A    between atoms: _346  and  _347
REMARK  127  A    between atoms: _346  and  _349
REMARK  128  A    between atoms: _349  and  _350
REMARK  129  A    between atoms: _350  and  _351
REMARK  130  A    between atoms: _354  and  _356
REMARK  131  A    between atoms: _356  and  _357
REMARK  132  A    between atoms: _356  and  _359
REMARK  133  A    between atoms: _359  and  _360
REMARK  134  A    between atoms: _360  and  _361
REMARK  135  A    between atoms: _361  and  _362
REMARK  136  A    between atoms: _371  and  _373
REMARK  137  A    between atoms: _373  and  _374
REMARK  138  A    between atoms: _376  and  _378
REMARK  139  A    between atoms: _378  and  _379
REMARK  140  A    between atoms: _378  and  _381
REMARK  141  A    between atoms: _381  and  _382
REMARK                            x       y       z     vdW  Elec       q    Type
REMARK                         _______ _______ _______ _____ _____    ______ ____
ROOT
ATOM      1  O   HOH     1      34.472  69.688  13.880  0.00  0.00    +0.000 OA
ENDROOT
TORSDOF 0
REMARK  Name = ../refined-set-2016/3d4y/3d4y_pocket.pdb
REMARK  141 active torsions:
REMARK  status: ('A' for Active; 'I' for Inactive)
REMARK    1  A    between atoms: _1  and  _3
REMARK    2  A    between atoms: _14  and  _17
REMARK    3  A    between atoms: _17  and  _18
REMARK    4  A    between atoms: _25  and  _26
REMARK    5  A    between atoms: _33  and  _34
REMARK    6  A    between atoms: _39  and  _41
REMARK    7  A    between atoms: _41  and  _42
REMARK    8  A    between atoms: _44  and  _46
REMARK    9  A    between atoms: _46  and  _47
REMARK   10  A    between atoms: _46  and  _49
REMARK   11  A    between atoms: _49  and  _50
REMARK   12  A    between atoms: _60  and  _62
REMARK   13  A    between atoms: _62  and  _63
REMARK   14  A    between atoms: _62  and  _65
REMARK   15  A    between atoms: _65  and  _66
REMARK   16  A    between atoms: _69  and  _71
REMARK   17  A    between atoms: _71  and  _72
REMARK   18  A    between atoms: _71  and  _74
REMARK   19  A    between atoms: _74  and  _75
REMARK   20  A    between atoms: _80  and  _81
REMARK   21  A    between atoms: _83  and  _85
REMARK   22  A    between atoms: _85  and  _86
REMARK   23  A    between atoms: _85  and  _88
REMARK   24  A    between atoms: _88  and  _89
REMARK   25  A    between atoms: _89  and  _90
REMARK   26  A    between atoms: _93  and  _95
REMARK   27  A    between atoms: _95  and  _96
REMARK   28  A    between atoms: _95  and  _98
REMARK   29  A    between atoms: _98  and  _99
REMARK   30  A    between atoms: _99  and  _100
REMARK   31  A    between atoms: _102  and  _104
REMARK   32  A    between atoms: _104  and  _105
REMARK   33  A    between atoms: _104  and  _107
REMARK   34  A    between atoms: _107  and  _108
REMARK   35  A    between atoms: _111  and  _113
REMARK   36  A    between atoms: _113  and  _114
REMARK   37  A    between atoms: _113  and  _116
REMARK   38  A    between atoms: _116  and  _117
REMARK   39  A    between atoms: _117  and  _119
REMARK   40  A    between atoms: _119  and  ZN_385
REMARK   41  A    between atoms: _121  and  _122
REMARK   42  A    between atoms: _127  and  _129
REMARK   43  A    between atoms: _129  and  _130
REMARK   44  A    between atoms: _129  and  _132
REMARK   45  A    between atoms: _132  and  _133
REMARK   46  A    between atoms: _139  and  _141
REMARK   47  A    between atoms: _141  and  _142
REMARK   48  A    between atoms: _141  and  _144
REMARK   49  A    between atoms: _144  and  _145
REMARK   50  A    between atoms: _145  and  _146
REMARK   51  A    between atoms: _146  and  _147
REMARK   52  A    between atoms: _156  and  _158
REMARK   53  A    between atoms: _158  and  _159
REMARK   54  A    between atoms: _158  and  _161
REMARK   55  A    between atoms: _161  and  _162
REMARK   56  A    between atoms: _167  and  _168
REMARK   57  A    between atoms: _170  and  _172
REMARK   58  A    between atoms: _172  and  _173
REMARK   59  A    between atoms: _172  and  _175
REMARK   60  A    between atoms: _175  and  _176
REMARK   61  A    between atoms: _178  and  _180
REMARK   62  A    between atoms: _180  and  _181
REMARK   63  A    between atoms: _180  and  _183
REMARK   64  A    between atoms: _183  and  _184
REMARK   65  A    between atoms: _189  and  _190
REMARK   66  A    between atoms: _192  and  _194
REMARK   67  A    between atoms: _194  and  _195
REMARK   68  A    between atoms: _194  and  _197
REMARK   69  A    between atoms: _197  and  _198
REMARK   70  A    between atoms: _201  and  _203
REMARK   71  A    between atoms: _203  and  _204
REMARK   72  A    between atoms: _203  and  _206
REMARK   73  A    between atoms: _206  and  _207
REMARK   74  A    between atoms: _210  and  _212
REMARK   75  A    between atoms: _212  and  _213
REMARK   76  A    between atoms: _212  and  _215
REMARK   77  A    between atoms: _215  and  _216
REMARK   78  A    between atoms: _222  and  _224
REMARK   79  A    between atoms: _224  and  _225
REMARK   80  A    between atoms: _224  and  _227
REMARK   81  A    between atoms: _227  and  _228
REMARK   82  A    between atoms: _233  and  _234
REMARK   83  A    between atoms: _236  and  _238
REMARK   84  A    between atoms: _238  and  _239
REMARK   85  A    between atoms: _238  and  _241
REMARK   86  A    between atoms: _241  and  _242
REMARK   87  A    between atoms: _245  and  _247
REMARK   88  A    between atoms: _247  and  _248
REMARK   89  A    between atoms: _247  and  _250
REMARK   90  A    between atoms: _250  and  _251
REMARK   91  A    between atoms: _261  and  _263
REMARK   92  A    between atoms: _263  and  _264
REMARK   93  A    between atoms: _263  and  _266
REMARK   94  A    between atoms: _266  and  _267
REMARK   95  A    between atoms: _272  and  _274
REMARK   96  A    between atoms: _274  and  _275
REMARK   97  A    between atoms: _274  and  _277
REMARK   98  A    between atoms: _277  and  _278
REMARK   99  A    between atoms: _282  and  ZN_385
REMARK  100  A    between atoms: _283  and  _285
REMARK  101  A    between atoms: _285  and  _286
REMARK  102  A    between atoms: _285  and  _288
REMARK  103  A    between atoms: _288  and  _289
REMARK  104  A    between atoms: _292  and  _294
REMARK  105  A    between atoms: _294  and  _295
REMARK  106  A    between atoms: _297  and  _299
REMARK  107  A    between atoms: _299  and  _300
REMARK  108  A    between atoms: _299  and  _302
REMARK  109  A    between atoms: _302  and  _303
REMARK  110  A    between atoms: _306  and  _308
REMARK  111  A    between atoms: _308  and  _309
REMARK  112  A    between atoms: _308  and  _311
REMARK  113  A    between atoms: _311  and  _312
REMARK  114  A    between atoms: _315  and  _317
REMARK  115  A    between atoms: _317  and  _318
REMARK  116  A    between atoms: _321  and  _323
REMARK  117  A    between atoms: _323  and  _324
REMARK  118  A    between atoms: _323  and  _326
REMARK  119  A    between atoms: _326  and  _327
REMARK  120  A    between atoms: _332  and  _333
REMARK  121  A    between atoms: _335  and  _337
REMARK  122  A    between atoms: _337  and  _338
REMARK  123  A    between atoms: _337  and  _340
REMARK  124  A    between atoms: _340  and  _341
REMARK  125  A    between atoms: _344  and  _346
REMARK  126  A    between atoms: _346  and  _347
REMARK  127  A    between atoms: _346  and  _349
REMARK  128  A    between atoms: _349  and  _350
REMARK  129  A    between atoms: _350  and  _351
REMARK  130  A    between atoms: _354  and  _356
REMARK  131  A    between atoms: _356  and  _357
REMARK  132  A    between atoms: _356  and  _359
REMARK  133  A    between atoms: _359  and  _360
REMARK  134  A    between atoms: _360  and  _361
REMARK  135  A    between atoms: _361  and  _362
REMARK  136  A    between atoms: _371  and  _373
REMARK  137  A    between atoms: _373  and  _374
REMARK  138  A    between atoms: _376  and  _378
REMARK  139  A    between atoms: _378  and  _379
REMARK  140  A    between atoms: _378  and  _381
REMARK  141  A    between atoms: _381  and  _382
REMARK                            x       y       z     vdW  Elec       q    Type
REMARK                         _______ _______ _______ _____ _____    ______ ____
ROOT
ATOM      1  O   HOH     1      25.259  66.816  12.205  0.00  0.00    +0.000 OA
ENDROOT
TORSDOF 0
