REMARK  Name = ../refined-set-2016/4k18/4k18_pocket.pdb
REMARK  213 active torsions:
REMARK  status: ('A' for Active; 'I' for Inactive)
REMARK    1  A    between atoms: _1  and  _3
REMARK    2  A    between atoms: _3  and  _4
REMARK    3  A    between atoms: _3  and  _6
REMARK    4  A    between atoms: _6  and  _7
REMARK    5  A    between atoms: _10  and  _12
REMARK    6  A    between atoms: _12  and  _13
REMARK    7  A    between atoms: _12  and  _15
REMARK    8  A    between atoms: _15  and  _16
REMARK    9  A    between atoms: _19  and  _21
REMARK   10  A    between atoms: _21  and  _22
REMARK   11  A    between atoms: _24  and  _26
REMARK   12  A    between atoms: _26  and  _27
REMARK   13  A    between atoms: _26  and  _29
REMARK   14  A    between atoms: _29  and  _30
REMARK   15  A    between atoms: _32  and  _34
REMARK   16  A    between atoms: _34  and  _35
REMARK   17  A    between atoms: _37  and  _39
REMARK   18  A    between atoms: _39  and  _40
REMARK   19  A    between atoms: _42  and  _44
REMARK   20  A    between atoms: _44  and  _45
REMARK   21  A    between atoms: _44  and  _47
REMARK   22  A    between atoms: _47  and  _48
REMARK   23  A    between atoms: _54  and  _56
REMARK   24  A    between atoms: _56  and  _57
REMARK   25  A    between atoms: _59  and  _61
REMARK   26  A    between atoms: _61  and  _62
REMARK   27  A    between atoms: _61  and  _64
REMARK   28  A    between atoms: _64  and  _65
REMARK   29  A    between atoms: _67  and  _69
REMARK   30  A    between atoms: _69  and  _70
REMARK   31  A    between atoms: _69  and  _72
REMARK   32  A    between atoms: _75  and  _77
REMARK   33  A    between atoms: _77  and  _78
REMARK   34  A    between atoms: _77  and  _80
REMARK   35  A    between atoms: _80  and  _81
REMARK   36  A    between atoms: _86  and  _87
REMARK   37  A    between atoms: _89  and  _91
REMARK   38  A    between atoms: _91  and  _92
REMARK   39  A    between atoms: _91  and  _94
REMARK   40  A    between atoms: _94  and  _95
REMARK   41  A    between atoms: _97  and  _99
REMARK   42  A    between atoms: _99  and  _100
REMARK   43  A    between atoms: _103  and  _104
REMARK   44  A    between atoms: _109  and  _111
REMARK   45  A    between atoms: _111  and  _112
REMARK   46  A    between atoms: _111  and  _114
REMARK   47  A    between atoms: _117  and  _119
REMARK   48  A    between atoms: _119  and  _120
REMARK   49  A    between atoms: _123  and  _125
REMARK   50  A    between atoms: _125  and  _126
REMARK   51  A    between atoms: _125  and  _128
REMARK   52  A    between atoms: _128  and  _129
REMARK   53  A    between atoms: _132  and  _134
REMARK   54  A    between atoms: _134  and  _135
REMARK   55  A    between atoms: _134  and  _137
REMARK   56  A    between atoms: _137  and  _138
REMARK   57  A    between atoms: _138  and  _139
REMARK   58  A    between atoms: _139  and  _140
REMARK   59  A    between atoms: _140  and  _141
REMARK   60  A    between atoms: _145  and  _147
REMARK   61  A    between atoms: _147  and  _148
REMARK   62  A    between atoms: _147  and  _150
REMARK   63  A    between atoms: _150  and  _151
REMARK   64  A    between atoms: _156  and  _158
REMARK   65  A    between atoms: _158  and  _159
REMARK   66  A    between atoms: _158  and  _161
REMARK   67  A    between atoms: _164  and  _166
REMARK   68  A    between atoms: _166  and  _167
REMARK   69  A    between atoms: _166  and  _169
REMARK   70  A    between atoms: _169  and  _170
REMARK   71  A    between atoms: _170  and  _171
REMARK   72  A    between atoms: _174  and  _176
REMARK   73  A    between atoms: _176  and  _177
REMARK   74  A    between atoms: _176  and  _179
REMARK   75  A    between atoms: _179  and  _180
REMARK   76  A    between atoms: _183  and  _185
REMARK   77  A    between atoms: _185  and  _186
REMARK   78  A    between atoms: _185  and  _188
REMARK   79  A    between atoms: _188  and  _189
REMARK   80  A    between atoms: _192  and  _194
REMARK   81  A    between atoms: _194  and  _195
REMARK   82  A    between atoms: _194  and  _197
REMARK   83  A    between atoms: _197  and  _198
REMARK   84  A    between atoms: _198  and  _199
REMARK   85  A    between atoms: _199  and  _200
REMARK   86  A    between atoms: _209  and  _211
REMARK   87  A    between atoms: _211  and  _212
REMARK   88  A    between atoms: _211  and  _214
REMARK   89  A    between atoms: _214  and  _215
REMARK   90  A    between atoms: _218  and  _220
REMARK   91  A    between atoms: _220  and  _221
REMARK   92  A    between atoms: _220  and  _223
REMARK   93  A    between atoms: _223  and  _224
REMARK   94  A    between atoms: _227  and  _229
REMARK   95  A    between atoms: _229  and  _230
REMARK   96  A    between atoms: _229  and  _232
REMARK   97  A    between atoms: _232  and  _233
REMARK   98  A    between atoms: _236  and  _238
REMARK   99  A    between atoms: _238  and  _239
REMARK  100  A    between atoms: _238  and  _241
REMARK  101  A    between atoms: _241  and  _242
REMARK  102  A    between atoms: _245  and  _247
REMARK  103  A    between atoms: _247  and  _248
REMARK  104  A    between atoms: _247  and  _250
REMARK  105  A    between atoms: _250  and  _251
REMARK  106  A    between atoms: _251  and  _252
REMARK  107  A    between atoms: _255  and  _257
REMARK  108  A    between atoms: _257  and  _258
REMARK  109  A    between atoms: _257  and  _260
REMARK  110  A    between atoms: _260  and  _261
REMARK  111  A    between atoms: _261  and  _262
REMARK  112  A    between atoms: _262  and  _263
REMARK  113  A    between atoms: _273  and  _274
REMARK  114  A    between atoms: _279  and  _281
REMARK  115  A    between atoms: _281  and  _282
REMARK  116  A    between atoms: _281  and  _284
REMARK  117  A    between atoms: _284  and  _285
REMARK  118  A    between atoms: _285  and  _286
REMARK  119  A    between atoms: _290  and  _291
REMARK  120  A    between atoms: _296  and  _298
REMARK  121  A    between atoms: _298  and  _299
REMARK  122  A    between atoms: _298  and  _301
REMARK  123  A    between atoms: _304  and  _306
REMARK  124  A    between atoms: _306  and  _307
REMARK  125  A    between atoms: _306  and  _309
REMARK  126  A    between atoms: _309  and  _310
REMARK  127  A    between atoms: _310  and  _311
REMARK  128  A    between atoms: _316  and  _318
REMARK  129  A    between atoms: _318  and  _319
REMARK  130  A    between atoms: _318  and  _321
REMARK  131  A    between atoms: _321  and  _322
REMARK  132  A    between atoms: _325  and  _327
REMARK  133  A    between atoms: _327  and  _328
REMARK  134  A    between atoms: _327  and  _330
REMARK  135  A    between atoms: _330  and  _331
REMARK  136  A    between atoms: _334  and  _336
REMARK  137  A    between atoms: _336  and  _337
REMARK  138  A    between atoms: _336  and  _339
REMARK  139  A    between atoms: _339  and  _340
REMARK  140  A    between atoms: _346  and  _348
REMARK  141  A    between atoms: _348  and  _349
REMARK  142  A    between atoms: _348  and  _351
REMARK  143  A    between atoms: _351  and  _352
REMARK  144  A    between atoms: _355  and  _357
REMARK  145  A    between atoms: _357  and  _358
REMARK  146  A    between atoms: _357  and  _360
REMARK  147  A    between atoms: _360  and  _361
REMARK  148  A    between atoms: _367  and  _369
REMARK  149  A    between atoms: _369  and  _370
REMARK  150  A    between atoms: _369  and  _372
REMARK  151  A    between atoms: _372  and  _373
REMARK  152  A    between atoms: _376  and  _378
REMARK  153  A    between atoms: _378  and  _379
REMARK  154  A    between atoms: _378  and  _381
REMARK  155  A    between atoms: _381  and  _382
REMARK  156  A    between atoms: _385  and  _387
REMARK  157  A    between atoms: _387  and  _388
REMARK  158  A    between atoms: _387  and  _390
REMARK  159  A    between atoms: _390  and  _391
REMARK  160  A    between atoms: _391  and  _392
REMARK  161  A    between atoms: _395  and  _397
REMARK  162  A    between atoms: _397  and  _398
REMARK  163  A    between atoms: _397  and  _400
REMARK  164  A    between atoms: _400  and  _401
REMARK  165  A    between atoms: _406  and  _408
REMARK  166  A    between atoms: _408  and  _409
REMARK  167  A    between atoms: _408  and  _411
REMARK  168  A    between atoms: _411  and  _412
REMARK  169  A    between atoms: _415  and  _417
REMARK  170  A    between atoms: _417  and  _418
REMARK  171  A    between atoms: _417  and  _420
REMARK  172  A    between atoms: _420  and  _421
REMARK  173  A    between atoms: _424  and  _426
REMARK  174  A    between atoms: _426  and  _427
REMARK  175  A    between atoms: _426  and  _429
REMARK  176  A    between atoms: _429  and  _430
REMARK  177  A    between atoms: _433  and  _435
REMARK  178  A    between atoms: _435  and  _436
REMARK  179  A    between atoms: _435  and  _438
REMARK  180  A    between atoms: _438  and  _439
REMARK  181  A    between atoms: _442  and  _444
REMARK  182  A    between atoms: _444  and  _445
REMARK  183  A    between atoms: _444  and  _447
REMARK  184  A    between atoms: _447  and  _448
REMARK  185  A    between atoms: _451  and  _453
REMARK  186  A    between atoms: _453  and  _454
REMARK  187  A    between atoms: _453  and  _456
REMARK  188  A    between atoms: _456  and  _457
REMARK  189  A    between atoms: _457  and  _458
REMARK  190  A    between atoms: _458  and  _459
REMARK  191  A    between atoms: _459  and  _460
REMARK  192  A    between atoms: _464  and  _466
REMARK  193  A    between atoms: _466  and  _467
REMARK  194  A    between atoms: _466  and  _469
REMARK  195  A    between atoms: _469  and  _470
REMARK  196  A    between atoms: _473  and  _475
REMARK  197  A    between atoms: _475  and  _476
REMARK  198  A    between atoms: _475  and  _478
REMARK  199  A    between atoms: _478  and  _479
REMARK  200  A    between atoms: _482  and  _484
REMARK  201  A    between atoms: _484  and  _485
REMARK  202  A    between atoms: _484  and  _487
REMARK  203  A    between atoms: _487  and  _488
REMARK  204  A    between atoms: _491  and  _493
REMARK  205  A    between atoms: _493  and  _494
REMARK  206  A    between atoms: _493  and  _496
REMARK  207  A    between atoms: _496  and  _497
REMARK  208  A    between atoms: _503  and  _505
REMARK  209  A    between atoms: _505  and  _506
REMARK  210  A    between atoms: _508  and  _510
REMARK  211  A    between atoms: _510  and  _511
REMARK  212  A    between atoms: _510  and  _513
REMARK  213  A    between atoms: _513  and  _514
REMARK                            x       y       z     vdW  Elec       q    Type
REMARK                         _______ _______ _______ _____ _____    ______ ____
ROOT
ATOM      1  CA  PHE A   7     -14.353 -26.672   2.469  0.00  0.00    +0.153 C 
ENDROOT
BRANCH   1   3
ATOM      2  C   GLY A   6     -13.870 -24.934   4.154  0.00  0.00    +0.243 C 
ATOM      3  N   PHE A   7     -14.337 -26.146   3.842  0.00  0.00    -0.297 N 
ATOM      4  H   PHE A   7     -14.707 -26.746   4.607  0.00  0.00    +0.150 HD
ATOM      5  O   GLY A   6     -13.286 -24.217   3.341  0.00  0.00    -0.273 OA
BRANCH   2   6
ATOM      6  CA  GLY A   6     -14.051 -24.503   5.598  0.00  0.00    +0.176 C 
BRANCH   6   8
ATOM      7  C   GLY A   5     -15.975 -25.777   6.368  0.00  0.00    +0.243 C 
ATOM      8  N   GLY A   6     -14.662 -25.566   6.376  0.00  0.00    -0.295 N 
ATOM      9  H   GLY A   6     -14.055 -26.180   6.956  0.00  0.00    +0.150 HD
ATOM     10  O   GLY A   5     -16.767 -25.053   5.762  0.00  0.00    -0.273 OA
BRANCH   7  11
ATOM     11  CA  GLY A   5     -16.461 -26.981   7.152  0.00  0.00    +0.176 C 
BRANCH  11  14
ATOM     12  C   SER A   4     -18.165 -28.711   6.872  0.00  0.00    +0.243 C 
ATOM     13  O   SER A   4     -17.483 -29.569   7.402  0.00  0.00    -0.273 OA
ATOM     14  N   GLY A   5     -17.745 -27.469   6.680  0.00  0.00    -0.295 N 
ATOM     15  H   GLY A   5     -18.365 -26.811   6.166  0.00  0.00    +0.150 HD
BRANCH  12  16
ATOM     16  CA  SER A   4     -19.554 -29.018   6.357  0.00  0.00    +0.178 C 
BRANCH  16  18
ATOM     17  C   GLY A   3     -21.285 -30.721   6.479  0.00  0.00    +0.243 C 
ATOM     18  N   SER A   4     -20.138 -30.227   6.933  0.00  0.00    -0.295 N 
ATOM     19  H   SER A   4     -19.647 -30.710   7.712  0.00  0.00    +0.150 HD
ATOM     20  O   GLY A   3     -21.949 -30.154   5.636  0.00  0.00    -0.273 OA
BRANCH  17  21
ATOM     21  CA  GLY A   3     -21.741 -32.052   7.074  0.00  0.00    +0.176 C 
BRANCH  21  24
ATOM     22  C   LEU A   2     -23.734 -33.501   7.134  0.00  0.00    +0.241 C 
ATOM     23  O   LEU A   2     -23.408 -34.134   8.140  0.00  0.00    -0.273 OA
ATOM     24  N   GLY A   3     -23.036 -32.501   6.608  0.00  0.00    -0.295 N 
ATOM     25  H   GLY A   3     -23.453 -32.001   5.797  0.00  0.00    +0.150 HD
BRANCH  22  26
ATOM     26  CA  LEU A   2     -24.981 -33.880   6.334  0.00  0.00    +0.149 C 
BRANCH  26  29
ATOM     27  C   LEU A   1     -26.826 -32.303   6.663  0.00  0.00    +0.238 C 
ATOM     28  O   LEU A   1     -27.378 -33.025   7.491  0.00  0.00    -0.274 OA
ATOM     29  N   LEU A   2     -25.736 -32.673   5.993  0.00  0.00    -0.297 N 
ATOM     30  H   LEU A   2     -25.410 -32.084   5.200  0.00  0.00    +0.150 HD
BRANCH  27  31
ATOM     31  CA  LEU A   1     -27.390 -30.914   6.350  0.00  0.00    +0.145 C 
BRANCH  31  32
ATOM     32  N   LEU A   1     -28.846 -30.938   6.347  0.00  0.00    -0.238 NA
ATOM     33  H   LEU A   1     -29.346 -30.301   7.000  0.00  0.00    +0.142 HD
ENDBRANCH  31  32
BRANCH  31  34
ATOM     34  CB  LEU A   1     -26.955 -29.940   7.441  0.00  0.00    +0.026 C 
BRANCH  34  35
ATOM     35  CG  LEU A   1     -25.726 -29.044   7.367  0.00  0.00    +0.002 C 
ATOM     36  CD2 LEU A   1     -25.944 -27.899   8.343  0.00  0.00    +0.000 C 
ATOM     37  CD1 LEU A   1     -25.488 -28.516   5.965  0.00  0.00    +0.000 C 
ENDBRANCH  34  35
ENDBRANCH  31  34
ENDBRANCH  27  31
ENDBRANCH  26  29
BRANCH  26  38
ATOM     38  CB  LEU A   2     -24.559 -34.645   5.075  0.00  0.00    +0.029 C 
BRANCH  38  39
ATOM     39  CG  LEU A   2     -25.623 -35.288   4.183  0.00  0.00    +0.002 C 
ATOM     40  CD2 LEU A   2     -26.419 -36.330   4.949  0.00  0.00    +0.000 C 
ATOM     41  CD1 LEU A   2     -24.973 -35.911   2.960  0.00  0.00    +0.000 C 
ENDBRANCH  38  39
ENDBRANCH  26  38
ENDBRANCH  22  26
ENDBRANCH  21  24
ENDBRANCH  17  21
ENDBRANCH  16  18
BRANCH  16  42
ATOM     42  CB  SER A   4     -20.441 -27.818   6.596  0.00  0.00    +0.166 C 
BRANCH  42  43
ATOM     43  OG  SER A   4     -20.403 -27.509   7.970  0.00  0.00    -0.380 OA
ATOM     44  H   SER A   4     -20.979 -26.724   8.147  0.00  0.00    +0.211 HD
ENDBRANCH  42  43
ENDBRANCH  16  42
ENDBRANCH  12  16
ENDBRANCH  11  14
ENDBRANCH   7  11
ENDBRANCH   6   8
ENDBRANCH   2   6
ENDBRANCH   1   3
BRANCH   1  45
ATOM     45  C   PHE A   7     -15.697 -26.548   1.768  0.00  0.00    +0.241 C 
ATOM     46  N   GLY A   8     -16.769 -26.581   2.546  0.00  0.00    -0.295 N 
ATOM     47  H   GLY A   8     -16.653 -26.703   3.572  0.00  0.00    +0.150 HD
ATOM     48  O   PHE A   7     -15.761 -26.414   0.550  0.00  0.00    -0.273 OA
BRANCH  46  49
ATOM     49  CA  GLY A   8     -18.105 -26.449   1.988  0.00  0.00    +0.176 C 
BRANCH  49  50
ATOM     50  C   GLY A   8     -19.190 -26.986   2.902  0.00  0.00    +0.243 C 
ATOM     51  O   GLY A   8     -18.906 -27.450   4.002  0.00  0.00    -0.273 OA
ATOM     52  N   SER A   9     -20.437 -26.918   2.447  0.00  0.00    -0.295 N 
ATOM     53  H   SER A   9     -20.612 -26.491   1.515  0.00  0.00    +0.150 HD
BRANCH  52  54
ATOM     54  CA  SER A   9     -21.567 -27.424   3.216  0.00  0.00    +0.178 C 
BRANCH  54  55
ATOM     55  C   SER A   9     -22.322 -28.431   2.363  0.00  0.00    +0.243 C 
ATOM     56  N   VAL A  10     -22.579 -29.609   2.918  0.00  0.00    -0.297 N 
ATOM     57  H   VAL A  10     -22.381 -29.754   3.929  0.00  0.00    +0.150 HD
ATOM     58  O   SER A   9     -22.655 -28.149   1.214  0.00  0.00    -0.273 OA
BRANCH  56  59
ATOM     59  CA  VAL A  10     -23.133 -30.700   2.132  0.00  0.00    +0.149 C 
BRANCH  59  60
ATOM     60  C   VAL A  10     -24.473 -31.151   2.696  0.00  0.00    +0.241 C 
ATOM     61  O   VAL A  10     -24.594 -31.407   3.894  0.00  0.00    -0.273 OA
ATOM     62  N   TYR A  11     -25.470 -31.247   1.821  0.00  0.00    -0.297 N 
ATOM     63  H   TYR A  11     -25.273 -31.066   0.816  0.00  0.00    +0.150 HD
BRANCH  62  64
ATOM     64  CA  TYR A  11     -26.829 -31.596   2.218  0.00  0.00    +0.153 C 
BRANCH  64  65
ATOM     65  C   TYR A  11     -27.225 -32.926   1.618  0.00  0.00    +0.241 C 
ATOM     66  N   SER A  12     -28.116 -33.634   2.299  0.00  0.00    -0.295 N 
ATOM     67  H   SER A  12     -28.384 -33.339   3.260  0.00  0.00    +0.150 HD
ATOM     68  O   TYR A  11     -26.733 -33.309   0.559  0.00  0.00    -0.273 OA
BRANCH  66  69
ATOM     69  CA  SER A  12     -28.720 -34.818   1.714  0.00  0.00    +0.178 C 
BRANCH  69  70
ATOM     70  C   SER A  12     -29.630 -34.373   0.583  0.00  0.00    +0.243 C 
ATOM     71  O   SER A  12     -30.215 -33.288   0.636  0.00  0.00    -0.273 OA
ATOM     72  N   GLY A  13     -29.744 -35.207  -0.443  0.00  0.00    -0.296 N 
ATOM     73  H   GLY A  13     -29.206 -36.097  -0.440  0.00  0.00    +0.150 HD
BRANCH  72  74
ATOM     74  CA  GLY A  13     -30.604 -34.900  -1.567  0.00  0.00    +0.163 C 
BRANCH  74  75
ATOM     75  C   GLY A  13     -31.105 -36.141  -2.275  0.00  0.00    +0.229 C 
ATOM     76  O   GLY A  13     -30.615 -37.250  -2.050  0.00  0.00    -0.286 OA
ENDBRANCH  74  75
ENDBRANCH  72  74
ENDBRANCH  69  70
BRANCH  69  77
ATOM     77  CB  SER A  12     -29.530 -35.584   2.755  0.00  0.00    +0.166 C 
BRANCH  77  78
ATOM     78  OG  SER A  12     -30.104 -36.738   2.175  0.00  0.00    -0.380 OA
ATOM     79  H   SER A  12     -30.626 -37.225   2.860  0.00  0.00    +0.211 HD
ENDBRANCH  77  78
ENDBRANCH  69  77
ENDBRANCH  66  69
ENDBRANCH  64  65
BRANCH  64  80
ATOM     80  CB  TYR A  11     -27.824 -30.530   1.746  0.00  0.00    +0.055 C 
BRANCH  80  81
ATOM     81  CG  TYR A  11     -27.593 -29.159   2.336  0.00  0.00    -0.020 A 
ATOM     82  CD2 TYR A  11     -28.382 -28.685   3.377  0.00  0.00    -0.001 A 
ATOM     83  CE2 TYR A  11     -28.170 -27.426   3.917  0.00  0.00    +0.036 A 
ATOM     84  CZ  TYR A  11     -27.161 -26.631   3.415  0.00  0.00    +0.134 A 
ATOM     85  CE1 TYR A  11     -26.368 -27.081   2.379  0.00  0.00    +0.036 A 
ATOM     86  CD1 TYR A  11     -26.588 -28.333   1.846  0.00  0.00    -0.001 A 
BRANCH  84  87
ATOM     87  OH  TYR A  11     -26.939 -25.374   3.939  0.00  0.00    -0.506 OA
ATOM     88  HH  TYR A  11     -26.183 -24.948   3.463  0.00  0.00    +0.292 HD
ENDBRANCH  84  87
ENDBRANCH  80  81
ENDBRANCH  64  80
ENDBRANCH  62  64
ENDBRANCH  59  60
BRANCH  59  89
ATOM     89  CB  VAL A  10     -22.162 -31.895   2.081  0.00  0.00    +0.027 C 
ATOM     90  CG2 VAL A  10     -20.757 -31.409   1.761  0.00  0.00    +0.002 C 
ATOM     91  CG1 VAL A  10     -22.625 -32.910   1.050  0.00  0.00    +0.002 C 
ENDBRANCH  59  89
ENDBRANCH  56  59
ENDBRANCH  54  55
BRANCH  54  92
ATOM     92  CB  SER A   9     -22.491 -26.277   3.598  0.00  0.00    +0.166 C 
BRANCH  92  93
ATOM     93  OG  SER A   9     -21.743 -25.097   3.818  0.00  0.00    -0.380 OA
ATOM     94  H   SER A   9     -22.356 -24.360   4.065  0.00  0.00    +0.211 HD
ENDBRANCH  92  93
ENDBRANCH  54  92
ENDBRANCH  52  54
ENDBRANCH  49  50
ENDBRANCH  46  49
ENDBRANCH   1  45
BRANCH   1  95
ATOM     95  CB  PHE A   7     -13.907 -28.135   2.417  0.00  0.00    +0.055 C 
BRANCH  95  96
ATOM     96  CG  PHE A   7     -14.107 -28.879   3.706  0.00  0.00    -0.020 A 
ATOM     97  CD2 PHE A   7     -15.214 -28.643   4.495  0.00  0.00    -0.004 A 
ATOM     98  CE2 PHE A   7     -15.392 -29.316   5.684  0.00  0.00    -0.000 A 
ATOM     99  CZ  PHE A   7     -14.471 -30.258   6.086  0.00  0.00    -0.000 A 
ATOM    100  CE1 PHE A   7     -13.370 -30.511   5.295  0.00  0.00    -0.000 A 
ATOM    101  CD1 PHE A   7     -13.193 -29.824   4.112  0.00  0.00    -0.004 A 
ENDBRANCH  95  96
ENDBRANCH   1  95
TORSDOF 42
REMARK  Name = ../refined-set-2016/4k18/4k18_pocket.pdb
REMARK  213 active torsions:
REMARK  status: ('A' for Active; 'I' for Inactive)
REMARK    1  A    between atoms: _1  and  _3
REMARK    2  A    between atoms: _3  and  _4
REMARK    3  A    between atoms: _3  and  _6
REMARK    4  A    between atoms: _6  and  _7
REMARK    5  A    between atoms: _10  and  _12
REMARK    6  A    between atoms: _12  and  _13
REMARK    7  A    between atoms: _12  and  _15
REMARK    8  A    between atoms: _15  and  _16
REMARK    9  A    between atoms: _19  and  _21
REMARK   10  A    between atoms: _21  and  _22
REMARK   11  A    between atoms: _24  and  _26
REMARK   12  A    between atoms: _26  and  _27
REMARK   13  A    between atoms: _26  and  _29
REMARK   14  A    between atoms: _29  and  _30
REMARK   15  A    between atoms: _32  and  _34
REMARK   16  A    between atoms: _34  and  _35
REMARK   17  A    between atoms: _37  and  _39
REMARK   18  A    between atoms: _39  and  _40
REMARK   19  A    between atoms: _42  and  _44
REMARK   20  A    between atoms: _44  and  _45
REMARK   21  A    between atoms: _44  and  _47
REMARK   22  A    between atoms: _47  and  _48
REMARK   23  A    between atoms: _54  and  _56
REMARK   24  A    between atoms: _56  and  _57
REMARK   25  A    between atoms: _59  and  _61
REMARK   26  A    between atoms: _61  and  _62
REMARK   27  A    between atoms: _61  and  _64
REMARK   28  A    between atoms: _64  and  _65
REMARK   29  A    between atoms: _67  and  _69
REMARK   30  A    between atoms: _69  and  _70
REMARK   31  A    between atoms: _69  and  _72
REMARK   32  A    between atoms: _75  and  _77
REMARK   33  A    between atoms: _77  and  _78
REMARK   34  A    between atoms: _77  and  _80
REMARK   35  A    between atoms: _80  and  _81
REMARK   36  A    between atoms: _86  and  _87
REMARK   37  A    between atoms: _89  and  _91
REMARK   38  A    between atoms: _91  and  _92
REMARK   39  A    between atoms: _91  and  _94
REMARK   40  A    between atoms: _94  and  _95
REMARK   41  A    between atoms: _97  and  _99
REMARK   42  A    between atoms: _99  and  _100
REMARK   43  A    between atoms: _103  and  _104
REMARK   44  A    between atoms: _109  and  _111
REMARK   45  A    between atoms: _111  and  _112
REMARK   46  A    between atoms: _111  and  _114
REMARK   47  A    between atoms: _117  and  _119
REMARK   48  A    between atoms: _119  and  _120
REMARK   49  A    between atoms: _123  and  _125
REMARK   50  A    between atoms: _125  and  _126
REMARK   51  A    between atoms: _125  and  _128
REMARK   52  A    between atoms: _128  and  _129
REMARK   53  A    between atoms: _132  and  _134
REMARK   54  A    between atoms: _134  and  _135
REMARK   55  A    between atoms: _134  and  _137
REMARK   56  A    between atoms: _137  and  _138
REMARK   57  A    between atoms: _138  and  _139
REMARK   58  A    between atoms: _139  and  _140
REMARK   59  A    between atoms: _140  and  _141
REMARK   60  A    between atoms: _145  and  _147
REMARK   61  A    between atoms: _147  and  _148
REMARK   62  A    between atoms: _147  and  _150
REMARK   63  A    between atoms: _150  and  _151
REMARK   64  A    between atoms: _156  and  _158
REMARK   65  A    between atoms: _158  and  _159
REMARK   66  A    between atoms: _158  and  _161
REMARK   67  A    between atoms: _164  and  _166
REMARK   68  A    between atoms: _166  and  _167
REMARK   69  A    between atoms: _166  and  _169
REMARK   70  A    between atoms: _169  and  _170
REMARK   71  A    between atoms: _170  and  _171
REMARK   72  A    between atoms: _174  and  _176
REMARK   73  A    between atoms: _176  and  _177
REMARK   74  A    between atoms: _176  and  _179
REMARK   75  A    between atoms: _179  and  _180
REMARK   76  A    between atoms: _183  and  _185
REMARK   77  A    between atoms: _185  and  _186
REMARK   78  A    between atoms: _185  and  _188
REMARK   79  A    between atoms: _188  and  _189
REMARK   80  A    between atoms: _192  and  _194
REMARK   81  A    between atoms: _194  and  _195
REMARK   82  A    between atoms: _194  and  _197
REMARK   83  A    between atoms: _197  and  _198
REMARK   84  A    between atoms: _198  and  _199
REMARK   85  A    between atoms: _199  and  _200
REMARK   86  A    between atoms: _209  and  _211
REMARK   87  A    between atoms: _211  and  _212
REMARK   88  A    between atoms: _211  and  _214
REMARK   89  A    between atoms: _214  and  _215
REMARK   90  A    between atoms: _218  and  _220
REMARK   91  A    between atoms: _220  and  _221
REMARK   92  A    between atoms: _220  and  _223
REMARK   93  A    between atoms: _223  and  _224
REMARK   94  A    between atoms: _227  and  _229
REMARK   95  A    between atoms: _229  and  _230
REMARK   96  A    between atoms: _229  and  _232
REMARK   97  A    between atoms: _232  and  _233
REMARK   98  A    between atoms: _236  and  _238
REMARK   99  A    between atoms: _238  and  _239
REMARK  100  A    between atoms: _238  and  _241
REMARK  101  A    between atoms: _241  and  _242
REMARK  102  A    between atoms: _245  and  _247
REMARK  103  A    between atoms: _247  and  _248
REMARK  104  A    between atoms: _247  and  _250
REMARK  105  A    between atoms: _250  and  _251
REMARK  106  A    between atoms: _251  and  _252
REMARK  107  A    between atoms: _255  and  _257
REMARK  108  A    between atoms: _257  and  _258
REMARK  109  A    between atoms: _257  and  _260
REMARK  110  A    between atoms: _260  and  _261
REMARK  111  A    between atoms: _261  and  _262
REMARK  112  A    between atoms: _262  and  _263
REMARK  113  A    between atoms: _273  and  _274
REMARK  114  A    between atoms: _279  and  _281
REMARK  115  A    between atoms: _281  and  _282
REMARK  116  A    between atoms: _281  and  _284
REMARK  117  A    between atoms: _284  and  _285
REMARK  118  A    between atoms: _285  and  _286
REMARK  119  A    between atoms: _290  and  _291
REMARK  120  A    between atoms: _296  and  _298
REMARK  121  A    between atoms: _298  and  _299
REMARK  122  A    between atoms: _298  and  _301
REMARK  123  A    between atoms: _304  and  _306
REMARK  124  A    between atoms: _306  and  _307
REMARK  125  A    between atoms: _306  and  _309
REMARK  126  A    between atoms: _309  and  _310
REMARK  127  A    between atoms: _310  and  _311
REMARK  128  A    between atoms: _316  and  _318
REMARK  129  A    between atoms: _318  and  _319
REMARK  130  A    between atoms: _318  and  _321
REMARK  131  A    between atoms: _321  and  _322
REMARK  132  A    between atoms: _325  and  _327
REMARK  133  A    between atoms: _327  and  _328
REMARK  134  A    between atoms: _327  and  _330
REMARK  135  A    between atoms: _330  and  _331
REMARK  136  A    between atoms: _334  and  _336
REMARK  137  A    between atoms: _336  and  _337
REMARK  138  A    between atoms: _336  and  _339
REMARK  139  A    between atoms: _339  and  _340
REMARK  140  A    between atoms: _346  and  _348
REMARK  141  A    between atoms: _348  and  _349
REMARK  142  A    between atoms: _348  and  _351
REMARK  143  A    between atoms: _351  and  _352
REMARK  144  A    between atoms: _355  and  _357
REMARK  145  A    between atoms: _357  and  _358
REMARK  146  A    between atoms: _357  and  _360
REMARK  147  A    between atoms: _360  and  _361
REMARK  148  A    between atoms: _367  and  _369
REMARK  149  A    between atoms: _369  and  _370
REMARK  150  A    between atoms: _369  and  _372
REMARK  151  A    between atoms: _372  and  _373
REMARK  152  A    between atoms: _376  and  _378
REMARK  153  A    between atoms: _378  and  _379
REMARK  154  A    between atoms: _378  and  _381
REMARK  155  A    between atoms: _381  and  _382
REMARK  156  A    between atoms: _385  and  _387
REMARK  157  A    between atoms: _387  and  _388
REMARK  158  A    between atoms: _387  and  _390
REMARK  159  A    between atoms: _390  and  _391
REMARK  160  A    between atoms: _391  and  _392
REMARK  161  A    between atoms: _395  and  _397
REMARK  162  A    between atoms: _397  and  _398
REMARK  163  A    between atoms: _397  and  _400
REMARK  164  A    between atoms: _400  and  _401
REMARK  165  A    between atoms: _406  and  _408
REMARK  166  A    between atoms: _408  and  _409
REMARK  167  A    between atoms: _408  and  _411
REMARK  168  A    between atoms: _411  and  _412
REMARK  169  A    between atoms: _415  and  _417
REMARK  170  A    between atoms: _417  and  _418
REMARK  171  A    between atoms: _417  and  _420
REMARK  172  A    between atoms: _420  and  _421
REMARK  173  A    between atoms: _424  and  _426
REMARK  174  A    between atoms: _426  and  _427
REMARK  175  A    between atoms: _426  and  _429
REMARK  176  A    between atoms: _429  and  _430
REMARK  177  A    between atoms: _433  and  _435
REMARK  178  A    between atoms: _435  and  _436
REMARK  179  A    between atoms: _435  and  _438
REMARK  180  A    between atoms: _438  and  _439
REMARK  181  A    between atoms: _442  and  _444
REMARK  182  A    between atoms: _444  and  _445
REMARK  183  A    between atoms: _444  and  _447
REMARK  184  A    between atoms: _447  and  _448
REMARK  185  A    between atoms: _451  and  _453
REMARK  186  A    between atoms: _453  and  _454
REMARK  187  A    between atoms: _453  and  _456
REMARK  188  A    between atoms: _456  and  _457
REMARK  189  A    between atoms: _457  and  _458
REMARK  190  A    between atoms: _458  and  _459
REMARK  191  A    between atoms: _459  and  _460
REMARK  192  A    between atoms: _464  and  _466
REMARK  193  A    between atoms: _466  and  _467
REMARK  194  A    between atoms: _466  and  _469
REMARK  195  A    between atoms: _469  and  _470
REMARK  196  A    between atoms: _473  and  _475
REMARK  197  A    between atoms: _475  and  _476
REMARK  198  A    between atoms: _475  and  _478
REMARK  199  A    between atoms: _478  and  _479
REMARK  200  A    between atoms: _482  and  _484
REMARK  201  A    between atoms: _484  and  _485
REMARK  202  A    between atoms: _484  and  _487
REMARK  203  A    between atoms: _487  and  _488
REMARK  204  A    between atoms: _491  and  _493
REMARK  205  A    between atoms: _493  and  _494
REMARK  206  A    between atoms: _493  and  _496
REMARK  207  A    between atoms: _496  and  _497
REMARK  208  A    between atoms: _503  and  _505
REMARK  209  A    between atoms: _505  and  _506
REMARK  210  A    between atoms: _508  and  _510
REMARK  211  A    between atoms: _510  and  _511
REMARK  212  A    between atoms: _510  and  _513
REMARK  213  A    between atoms: _513  and  _514
REMARK                            x       y       z     vdW  Elec       q    Type
REMARK                         _______ _______ _______ _____ _____    ______ ____
ROOT
ATOM      1  C   ILE A   4     -24.384 -30.722  -1.797  0.00  0.00    +0.241 C 
ATOM      2  O   ILE A   4     -24.682 -30.282  -0.684  0.00  0.00    -0.273 OA
ATOM      3  N   LYS A   5     -23.248 -30.426  -2.419  0.00  0.00    -0.297 N 
ATOM      4  H   LYS A   5     -23.076 -30.813  -3.369  0.00  0.00    +0.150 HD
ENDROOT
BRANCH   3   5
ATOM      5  CA  LYS A   5     -22.237 -29.575  -1.807  0.00  0.00    +0.149 C 
BRANCH   5   6
ATOM      6  C   LYS A   5     -22.250 -28.173  -2.399  0.00  0.00    +0.241 C 
ATOM      7  N   HIS A   6     -22.323 -27.177  -1.526  0.00  0.00    -0.297 N 
ATOM      8  H   HIS A   6     -22.376 -27.397  -0.511  0.00  0.00    +0.150 HD
ATOM      9  O   LYS A   5     -22.189 -28.000  -3.616  0.00  0.00    -0.273 OA
BRANCH   7  10
ATOM     10  CA  HIS A   6     -22.331 -25.786  -1.948  0.00  0.00    +0.155 C 
BRANCH  10  11
ATOM     11  C   HIS A   6     -20.992 -25.156  -1.617  0.00  0.00    +0.241 C 
ATOM     12  O   HIS A   6     -20.485 -25.311  -0.511  0.00  0.00    -0.273 OA
ATOM     13  N   VAL A   7     -20.405 -24.483  -2.589  0.00  0.00    -0.298 N 
ATOM     14  H   VAL A   7     -20.855 -24.473  -3.526  0.00  0.00    +0.150 HD
BRANCH  13  15
ATOM     15  CA  VAL A   7     -19.160 -23.755  -2.412  0.00  0.00    +0.137 C 
BRANCH  15  16
ATOM     16  CB  VAL A   7     -18.068 -24.256  -3.368  0.00  0.00    +0.026 C 
ATOM     17  CG2 VAL A   7     -16.783 -23.524  -3.125  0.00  0.00    +0.002 C 
ATOM     18  CG1 VAL A   7     -17.818 -25.720  -3.215  0.00  0.00    +0.002 C 
ENDBRANCH  15  16
BRANCH  15  19
ATOM     19  C   VAL A   7     -19.321 -22.267  -2.699  0.00  0.00    +0.227 C 
ATOM     20  O   VAL A   7     -19.760 -21.913  -3.754  0.00  0.00    -0.286 OA
ENDBRANCH  15  19
ENDBRANCH  13  15
ENDBRANCH  10  11
BRANCH  10  21
ATOM     21  CB  HIS A   6     -23.459 -25.024  -1.247  0.00  0.00    +0.076 C 
BRANCH  21  22
ATOM     22  CG  HIS A   6     -24.826 -25.551  -1.562  0.00  0.00    +0.082 A 
ATOM     23  CD2 HIS A   6     -25.445 -26.698  -1.196  0.00  0.00    +0.115 A 
ATOM     24  NE2 HIS A   6     -26.691 -26.691  -1.777  0.00  0.00    -0.221 NA
ATOM     25  CE1 HIS A   6     -26.831 -25.579  -2.476  0.00  0.00    +0.199 A 
ATOM     26  ND1 HIS A   6     -25.718 -24.876  -2.368  0.00  0.00    -0.227 NA
ENDBRANCH  21  22
ENDBRANCH  10  21
ENDBRANCH   7  10
ENDBRANCH   5   6
BRANCH   5  27
ATOM     27  CB  LYS A   5     -20.844 -30.188  -1.973  0.00  0.00    +0.029 C 
BRANCH  27  28
ATOM     28  CG  LYS A   5     -19.727 -29.299  -1.449  0.00  0.00    +0.000 C 
BRANCH  28  29
ATOM     29  CD  LYS A   5     -18.362 -29.976  -1.579  0.00  0.00    -0.024 C 
BRANCH  29  30
ATOM     30  CE  LYS A   5     -17.270 -29.137  -0.919  0.00  0.00    -0.086 C 
BRANCH  30  31
ATOM     31  NZ  LYS A   5     -15.918 -29.773  -1.008  0.00  0.00    +0.380 N 
ATOM     32  HZ1 LYS A   5     -15.940 -30.698  -0.534  0.00  0.00    -0.089 HD
ATOM     33  HZ2 LYS A   5     -15.217 -29.161  -0.544  0.00  0.00    -0.089 HD
ATOM     34  HZ3 LYS A   5     -15.661 -29.901  -2.008  0.00  0.00    -0.089 HD
ENDBRANCH  30  31
ENDBRANCH  29  30
ENDBRANCH  28  29
ENDBRANCH  27  28
ENDBRANCH   5  27
ENDBRANCH   3   5
BRANCH   1  35
ATOM     35  CA  ILE A   4     -25.316 -31.665  -2.539  0.00  0.00    +0.149 C 
BRANCH  35  37
ATOM     36  C   ALA A   3     -24.916 -34.047  -2.483  0.00  0.00    +0.241 C 
ATOM     37  N   ILE A   4     -25.335 -32.951  -1.867  0.00  0.00    -0.297 N 
ATOM     38  H   ILE A   4     -25.682 -33.013  -0.889  0.00  0.00    +0.150 HD
ATOM     39  O   ALA A   3     -24.407 -34.031  -3.600  0.00  0.00    -0.273 OA
BRANCH  36  40
ATOM     40  CA  ALA A   3     -25.117 -35.354  -1.740  0.00  0.00    +0.149 C 
ATOM     41  CB  ALA A   3     -23.803 -35.842  -1.152  0.00  0.00    +0.031 C 
BRANCH  40  44
ATOM     42  C   VAL A   2     -26.813 -36.878  -2.586  0.00  0.00    +0.241 C 
ATOM     43  O   VAL A   2     -27.526 -36.763  -1.587  0.00  0.00    -0.273 OA
ATOM     44  N   ALA A   3     -25.626 -36.298  -2.712  0.00  0.00    -0.297 N 
ATOM     45  H   ALA A   3     -25.040 -36.530  -3.539  0.00  0.00    +0.150 HD
BRANCH  42  46
ATOM     46  CA  VAL A   2     -27.246 -37.720  -3.772  0.00  0.00    +0.148 C 
BRANCH  46  48
ATOM     47  C   PRO A   1     -28.479 -39.804  -3.801  0.00  0.00    +0.239 C 
ATOM     48  N   VAL A   2     -28.415 -38.524  -3.455  0.00  0.00    -0.297 N 
ATOM     49  H   VAL A   2     -29.213 -38.090  -2.949  0.00  0.00    +0.150 HD
ATOM     50  O   PRO A   1     -27.606 -40.367  -4.462  0.00  0.00    -0.274 OA
BRANCH  47  52
ATOM     51  N   PRO A   1     -30.257 -41.347  -4.488  0.00  0.00    -0.210 NA
ATOM     52  CA  PRO A   1     -29.725 -40.569  -3.369  0.00  0.00    +0.149 C 
ATOM     53  CB  PRO A   1     -29.361 -41.643  -2.338  0.00  0.00    +0.028 C 
ATOM     54  CG  PRO A   1     -30.190 -42.827  -2.710  0.00  0.00    +0.021 C 
ATOM     55  CD  PRO A   1     -30.279 -42.790  -4.200  0.00  0.00    +0.089 C 
ENDBRANCH  47  52
ENDBRANCH  46  48
BRANCH  46  56
ATOM     56  CB  VAL A   2     -27.481 -36.784  -4.982  0.00  0.00    +0.027 C 
ATOM     57  CG2 VAL A   2     -28.580 -35.773  -4.680  0.00  0.00    +0.002 C 
ATOM     58  CG1 VAL A   2     -27.794 -37.584  -6.238  0.00  0.00    +0.002 C 
ENDBRANCH  46  56
ENDBRANCH  42  46
ENDBRANCH  40  44
ENDBRANCH  36  40
ENDBRANCH  35  37
BRANCH  35  59
ATOM     59  CB  ILE A   4     -26.744 -31.078  -2.632  0.00  0.00    +0.027 C 
ATOM     60  CG2 ILE A   4     -26.762 -29.818  -3.460  0.00  0.00    +0.002 C 
BRANCH  59  61
ATOM     61  CG1 ILE A   4     -27.692 -32.107  -3.247  0.00  0.00    +0.002 C 
ATOM     62  CD1 ILE A   4     -29.134 -31.629  -3.349  0.00  0.00    +0.000 C 
ENDBRANCH  59  61
ENDBRANCH  35  59
ENDBRANCH   1  35
TORSDOF 24
REMARK  Name = ../refined-set-2016/4k18/4k18_pocket.pdb
REMARK  213 active torsions:
REMARK  status: ('A' for Active; 'I' for Inactive)
REMARK    1  A    between atoms: _1  and  _3
REMARK    2  A    between atoms: _3  and  _4
REMARK    3  A    between atoms: _3  and  _6
REMARK    4  A    between atoms: _6  and  _7
REMARK    5  A    between atoms: _10  and  _12
REMARK    6  A    between atoms: _12  and  _13
REMARK    7  A    between atoms: _12  and  _15
REMARK    8  A    between atoms: _15  and  _16
REMARK    9  A    between atoms: _19  and  _21
REMARK   10  A    between atoms: _21  and  _22
REMARK   11  A    between atoms: _24  and  _26
REMARK   12  A    between atoms: _26  and  _27
REMARK   13  A    between atoms: _26  and  _29
REMARK   14  A    between atoms: _29  and  _30
REMARK   15  A    between atoms: _32  and  _34
REMARK   16  A    between atoms: _34  and  _35
REMARK   17  A    between atoms: _37  and  _39
REMARK   18  A    between atoms: _39  and  _40
REMARK   19  A    between atoms: _42  and  _44
REMARK   20  A    between atoms: _44  and  _45
REMARK   21  A    between atoms: _44  and  _47
REMARK   22  A    between atoms: _47  and  _48
REMARK   23  A    between atoms: _54  and  _56
REMARK   24  A    between atoms: _56  and  _57
REMARK   25  A    between atoms: _59  and  _61
REMARK   26  A    between atoms: _61  and  _62
REMARK   27  A    between atoms: _61  and  _64
REMARK   28  A    between atoms: _64  and  _65
REMARK   29  A    between atoms: _67  and  _69
REMARK   30  A    between atoms: _69  and  _70
REMARK   31  A    between atoms: _69  and  _72
REMARK   32  A    between atoms: _75  and  _77
REMARK   33  A    between atoms: _77  and  _78
REMARK   34  A    between atoms: _77  and  _80
REMARK   35  A    between atoms: _80  and  _81
REMARK   36  A    between atoms: _86  and  _87
REMARK   37  A    between atoms: _89  and  _91
REMARK   38  A    between atoms: _91  and  _92
REMARK   39  A    between atoms: _91  and  _94
REMARK   40  A    between atoms: _94  and  _95
REMARK   41  A    between atoms: _97  and  _99
REMARK   42  A    between atoms: _99  and  _100
REMARK   43  A    between atoms: _103  and  _104
REMARK   44  A    between atoms: _109  and  _111
REMARK   45  A    between atoms: _111  and  _112
REMARK   46  A    between atoms: _111  and  _114
REMARK   47  A    between atoms: _117  and  _119
REMARK   48  A    between atoms: _119  and  _120
REMARK   49  A    between atoms: _123  and  _125
REMARK   50  A    between atoms: _125  and  _126
REMARK   51  A    between atoms: _125  and  _128
REMARK   52  A    between atoms: _128  and  _129
REMARK   53  A    between atoms: _132  and  _134
REMARK   54  A    between atoms: _134  and  _135
REMARK   55  A    between atoms: _134  and  _137
REMARK   56  A    between atoms: _137  and  _138
REMARK   57  A    between atoms: _138  and  _139
REMARK   58  A    between atoms: _139  and  _140
REMARK   59  A    between atoms: _140  and  _141
REMARK   60  A    between atoms: _145  and  _147
REMARK   61  A    between atoms: _147  and  _148
REMARK   62  A    between atoms: _147  and  _150
REMARK   63  A    between atoms: _150  and  _151
REMARK   64  A    between atoms: _156  and  _158
REMARK   65  A    between atoms: _158  and  _159
REMARK   66  A    between atoms: _158  and  _161
REMARK   67  A    between atoms: _164  and  _166
REMARK   68  A    between atoms: _166  and  _167
REMARK   69  A    between atoms: _166  and  _169
REMARK   70  A    between atoms: _169  and  _170
REMARK   71  A    between atoms: _170  and  _171
REMARK   72  A    between atoms: _174  and  _176
REMARK   73  A    between atoms: _176  and  _177
REMARK   74  A    between atoms: _176  and  _179
REMARK   75  A    between atoms: _179  and  _180
REMARK   76  A    between atoms: _183  and  _185
REMARK   77  A    between atoms: _185  and  _186
REMARK   78  A    between atoms: _185  and  _188
REMARK   79  A    between atoms: _188  and  _189
REMARK   80  A    between atoms: _192  and  _194
REMARK   81  A    between atoms: _194  and  _195
REMARK   82  A    between atoms: _194  and  _197
REMARK   83  A    between atoms: _197  and  _198
REMARK   84  A    between atoms: _198  and  _199
REMARK   85  A    between atoms: _199  and  _200
REMARK   86  A    between atoms: _209  and  _211
REMARK   87  A    between atoms: _211  and  _212
REMARK   88  A    between atoms: _211  and  _214
REMARK   89  A    between atoms: _214  and  _215
REMARK   90  A    between atoms: _218  and  _220
REMARK   91  A    between atoms: _220  and  _221
REMARK   92  A    between atoms: _220  and  _223
REMARK   93  A    between atoms: _223  and  _224
REMARK   94  A    between atoms: _227  and  _229
REMARK   95  A    between atoms: _229  and  _230
REMARK   96  A    between atoms: _229  and  _232
REMARK   97  A    between atoms: _232  and  _233
REMARK   98  A    between atoms: _236  and  _238
REMARK   99  A    between atoms: _238  and  _239
REMARK  100  A    between atoms: _238  and  _241
REMARK  101  A    between atoms: _241  and  _242
REMARK  102  A    between atoms: _245  and  _247
REMARK  103  A    between atoms: _247  and  _248
REMARK  104  A    between atoms: _247  and  _250
REMARK  105  A    between atoms: _250  and  _251
REMARK  106  A    between atoms: _251  and  _252
REMARK  107  A    between atoms: _255  and  _257
REMARK  108  A    between atoms: _257  and  _258
REMARK  109  A    between atoms: _257  and  _260
REMARK  110  A    between atoms: _260  and  _261
REMARK  111  A    between atoms: _261  and  _262
REMARK  112  A    between atoms: _262  and  _263
REMARK  113  A    between atoms: _273  and  _274
REMARK  114  A    between atoms: _279  and  _281
REMARK  115  A    between atoms: _281  and  _282
REMARK  116  A    between atoms: _281  and  _284
REMARK  117  A    between atoms: _284  and  _285
REMARK  118  A    between atoms: _285  and  _286
REMARK  119  A    between atoms: _290  and  _291
REMARK  120  A    between atoms: _296  and  _298
REMARK  121  A    between atoms: _298  and  _299
REMARK  122  A    between atoms: _298  and  _301
REMARK  123  A    between atoms: _304  and  _306
REMARK  124  A    between atoms: _306  and  _307
REMARK  125  A    between atoms: _306  and  _309
REMARK  126  A    between atoms: _309  and  _310
REMARK  127  A    between atoms: _310  and  _311
REMARK  128  A    between atoms: _316  and  _318
REMARK  129  A    between atoms: _318  and  _319
REMARK  130  A    between atoms: _318  and  _321
REMARK  131  A    between atoms: _321  and  _322
REMARK  132  A    between atoms: _325  and  _327
REMARK  133  A    between atoms: _327  and  _328
REMARK  134  A    between atoms: _327  and  _330
REMARK  135  A    between atoms: _330  and  _331
REMARK  136  A    between atoms: _334  and  _336
REMARK  137  A    between atoms: _336  and  _337
REMARK  138  A    between atoms: _336  and  _339
REMARK  139  A    between atoms: _339  and  _340
REMARK  140  A    between atoms: _346  and  _348
REMARK  141  A    between atoms: _348  and  _349
REMARK  142  A    between atoms: _348  and  _351
REMARK  143  A    between atoms: _351  and  _352
REMARK  144  A    between atoms: _355  and  _357
REMARK  145  A    between atoms: _357  and  _358
REMARK  146  A    between atoms: _357  and  _360
REMARK  147  A    between atoms: _360  and  _361
REMARK  148  A    between atoms: _367  and  _369
REMARK  149  A    between atoms: _369  and  _370
REMARK  150  A    between atoms: _369  and  _372
REMARK  151  A    between atoms: _372  and  _373
REMARK  152  A    between atoms: _376  and  _378
REMARK  153  A    between atoms: _378  and  _379
REMARK  154  A    between atoms: _378  and  _381
REMARK  155  A    between atoms: _381  and  _382
REMARK  156  A    between atoms: _385  and  _387
REMARK  157  A    between atoms: _387  and  _388
REMARK  158  A    between atoms: _387  and  _390
REMARK  159  A    between atoms: _390  and  _391
REMARK  160  A    between atoms: _391  and  _392
REMARK  161  A    between atoms: _395  and  _397
REMARK  162  A    between atoms: _397  and  _398
REMARK  163  A    between atoms: _397  and  _400
REMARK  164  A    between atoms: _400  and  _401
REMARK  165  A    between atoms: _406  and  _408
REMARK  166  A    between atoms: _408  and  _409
REMARK  167  A    between atoms: _408  and  _411
REMARK  168  A    between atoms: _411  and  _412
REMARK  169  A    between atoms: _415  and  _417
REMARK  170  A    between atoms: _417  and  _418
REMARK  171  A    between atoms: _417  and  _420
REMARK  172  A    between atoms: _420  and  _421
REMARK  173  A    between atoms: _424  and  _426
REMARK  174  A    between atoms: _426  and  _427
REMARK  175  A    between atoms: _426  and  _429
REMARK  176  A    between atoms: _429  and  _430
REMARK  177  A    between atoms: _433  and  _435
REMARK  178  A    between atoms: _435  and  _436
REMARK  179  A    between atoms: _435  and  _438
REMARK  180  A    between atoms: _438  and  _439
REMARK  181  A    between atoms: _442  and  _444
REMARK  182  A    between atoms: _444  and  _445
REMARK  183  A    between atoms: _444  and  _447
REMARK  184  A    between atoms: _447  and  _448
REMARK  185  A    between atoms: _451  and  _453
REMARK  186  A    between atoms: _453  and  _454
REMARK  187  A    between atoms: _453  and  _456
REMARK  188  A    between atoms: _456  and  _457
REMARK  189  A    between atoms: _457  and  _458
REMARK  190  A    between atoms: _458  and  _459
REMARK  191  A    between atoms: _459  and  _460
REMARK  192  A    between atoms: _464  and  _466
REMARK  193  A    between atoms: _466  and  _467
REMARK  194  A    between atoms: _466  and  _469
REMARK  195  A    between atoms: _469  and  _470
REMARK  196  A    between atoms: _473  and  _475
REMARK  197  A    between atoms: _475  and  _476
REMARK  198  A    between atoms: _475  and  _478
REMARK  199  A    between atoms: _478  and  _479
REMARK  200  A    between atoms: _482  and  _484
REMARK  201  A    between atoms: _484  and  _485
REMARK  202  A    between atoms: _484  and  _487
REMARK  203  A    between atoms: _487  and  _488
REMARK  204  A    between atoms: _491  and  _493
REMARK  205  A    between atoms: _493  and  _494
REMARK  206  A    between atoms: _493  and  _496
REMARK  207  A    between atoms: _496  and  _497
REMARK  208  A    between atoms: _503  and  _505
REMARK  209  A    between atoms: _505  and  _506
REMARK  210  A    between atoms: _508  and  _510
REMARK  211  A    between atoms: _510  and  _511
REMARK  212  A    between atoms: _510  and  _513
REMARK  213  A    between atoms: _513  and  _514
REMARK                            x       y       z     vdW  Elec       q    Type
REMARK                         _______ _______ _______ _____ _____    ______ ____
ROOT
ATOM      1  CA  GLU A   1     -12.450 -28.929  -7.324  0.00  0.00    +0.134 C 
ENDROOT
BRANCH   1   2
ATOM      2  N   GLU A   1     -11.806 -27.741  -7.874  0.00  0.00    -0.239 NA
ATOM      3  H   GLU A   1     -11.959 -26.824  -7.408  0.00  0.00    +0.142 HD
ENDBRANCH   1   2
BRANCH   1   4
ATOM      4  C   GLU A   1     -13.322 -29.627  -8.361  0.00  0.00    +0.224 C 
ATOM      5  O   GLU A   1     -13.344 -30.855  -8.437  0.00  0.00    -0.287 OA
ENDBRANCH   1   4
BRANCH   1   6
ATOM      6  CB  GLU A   1     -13.275 -28.566  -6.086  0.00  0.00    +0.037 C 
BRANCH   6   7
ATOM      7  CG  GLU A   1     -13.962 -29.751  -5.423  0.00  0.00    +0.116 C 
BRANCH   7   8
ATOM      8  CD  GLU A   1     -14.674 -29.370  -4.134  0.00  0.00    +0.365 C 
ATOM      9  OE2 GLU A   1     -15.268 -30.262  -3.491  0.00  0.00    -0.246 OA
ATOM     10  OE1 GLU A   1     -14.633 -28.181  -3.755  0.00  0.00    -0.246 OA
ENDBRANCH   7   8
ENDBRANCH   6   7
ENDBRANCH   1   6
TORSDOF 5
REMARK  Name = ../refined-set-2016/4k18/4k18_pocket.pdb
REMARK  213 active torsions:
REMARK  status: ('A' for Active; 'I' for Inactive)
REMARK    1  A    between atoms: _1  and  _3
REMARK    2  A    between atoms: _3  and  _4
REMARK    3  A    between atoms: _3  and  _6
REMARK    4  A    between atoms: _6  and  _7
REMARK    5  A    between atoms: _10  and  _12
REMARK    6  A    between atoms: _12  and  _13
REMARK    7  A    between atoms: _12  and  _15
REMARK    8  A    between atoms: _15  and  _16
REMARK    9  A    between atoms: _19  and  _21
REMARK   10  A    between atoms: _21  and  _22
REMARK   11  A    between atoms: _24  and  _26
REMARK   12  A    between atoms: _26  and  _27
REMARK   13  A    between atoms: _26  and  _29
REMARK   14  A    between atoms: _29  and  _30
REMARK   15  A    between atoms: _32  and  _34
REMARK   16  A    between atoms: _34  and  _35
REMARK   17  A    between atoms: _37  and  _39
REMARK   18  A    between atoms: _39  and  _40
REMARK   19  A    between atoms: _42  and  _44
REMARK   20  A    between atoms: _44  and  _45
REMARK   21  A    between atoms: _44  and  _47
REMARK   22  A    between atoms: _47  and  _48
REMARK   23  A    between atoms: _54  and  _56
REMARK   24  A    between atoms: _56  and  _57
REMARK   25  A    between atoms: _59  and  _61
REMARK   26  A    between atoms: _61  and  _62
REMARK   27  A    between atoms: _61  and  _64
REMARK   28  A    between atoms: _64  and  _65
REMARK   29  A    between atoms: _67  and  _69
REMARK   30  A    between atoms: _69  and  _70
REMARK   31  A    between atoms: _69  and  _72
REMARK   32  A    between atoms: _75  and  _77
REMARK   33  A    between atoms: _77  and  _78
REMARK   34  A    between atoms: _77  and  _80
REMARK   35  A    between atoms: _80  and  _81
REMARK   36  A    between atoms: _86  and  _87
REMARK   37  A    between atoms: _89  and  _91
REMARK   38  A    between atoms: _91  and  _92
REMARK   39  A    between atoms: _91  and  _94
REMARK   40  A    between atoms: _94  and  _95
REMARK   41  A    between atoms: _97  and  _99
REMARK   42  A    between atoms: _99  and  _100
REMARK   43  A    between atoms: _103  and  _104
REMARK   44  A    between atoms: _109  and  _111
REMARK   45  A    between atoms: _111  and  _112
REMARK   46  A    between atoms: _111  and  _114
REMARK   47  A    between atoms: _117  and  _119
REMARK   48  A    between atoms: _119  and  _120
REMARK   49  A    between atoms: _123  and  _125
REMARK   50  A    between atoms: _125  and  _126
REMARK   51  A    between atoms: _125  and  _128
REMARK   52  A    between atoms: _128  and  _129
REMARK   53  A    between atoms: _132  and  _134
REMARK   54  A    between atoms: _134  and  _135
REMARK   55  A    between atoms: _134  and  _137
REMARK   56  A    between atoms: _137  and  _138
REMARK   57  A    between atoms: _138  and  _139
REMARK   58  A    between atoms: _139  and  _140
REMARK   59  A    between atoms: _140  and  _141
REMARK   60  A    between atoms: _145  and  _147
REMARK   61  A    between atoms: _147  and  _148
REMARK   62  A    between atoms: _147  and  _150
REMARK   63  A    between atoms: _150  and  _151
REMARK   64  A    between atoms: _156  and  _158
REMARK   65  A    between atoms: _158  and  _159
REMARK   66  A    between atoms: _158  and  _161
REMARK   67  A    between atoms: _164  and  _166
REMARK   68  A    between atoms: _166  and  _167
REMARK   69  A    between atoms: _166  and  _169
REMARK   70  A    between atoms: _169  and  _170
REMARK   71  A    between atoms: _170  and  _171
REMARK   72  A    between atoms: _174  and  _176
REMARK   73  A    between atoms: _176  and  _177
REMARK   74  A    between atoms: _176  and  _179
REMARK   75  A    between atoms: _179  and  _180
REMARK   76  A    between atoms: _183  and  _185
REMARK   77  A    between atoms: _185  and  _186
REMARK   78  A    between atoms: _185  and  _188
REMARK   79  A    between atoms: _188  and  _189
REMARK   80  A    between atoms: _192  and  _194
REMARK   81  A    between atoms: _194  and  _195
REMARK   82  A    between atoms: _194  and  _197
REMARK   83  A    between atoms: _197  and  _198
REMARK   84  A    between atoms: _198  and  _199
REMARK   85  A    between atoms: _199  and  _200
REMARK   86  A    between atoms: _209  and  _211
REMARK   87  A    between atoms: _211  and  _212
REMARK   88  A    between atoms: _211  and  _214
REMARK   89  A    between atoms: _214  and  _215
REMARK   90  A    between atoms: _218  and  _220
REMARK   91  A    between atoms: _220  and  _221
REMARK   92  A    between atoms: _220  and  _223
REMARK   93  A    between atoms: _223  and  _224
REMARK   94  A    between atoms: _227  and  _229
REMARK   95  A    between atoms: _229  and  _230
REMARK   96  A    between atoms: _229  and  _232
REMARK   97  A    between atoms: _232  and  _233
REMARK   98  A    between atoms: _236  and  _238
REMARK   99  A    between atoms: _238  and  _239
REMARK  100  A    between atoms: _238  and  _241
REMARK  101  A    between atoms: _241  and  _242
REMARK  102  A    between atoms: _245  and  _247
REMARK  103  A    between atoms: _247  and  _248
REMARK  104  A    between atoms: _247  and  _250
REMARK  105  A    between atoms: _250  and  _251
REMARK  106  A    between atoms: _251  and  _252
REMARK  107  A    between atoms: _255  and  _257
REMARK  108  A    between atoms: _257  and  _258
REMARK  109  A    between atoms: _257  and  _260
REMARK  110  A    between atoms: _260  and  _261
REMARK  111  A    between atoms: _261  and  _262
REMARK  112  A    between atoms: _262  and  _263
REMARK  113  A    between atoms: _273  and  _274
REMARK  114  A    between atoms: _279  and  _281
REMARK  115  A    between atoms: _281  and  _282
REMARK  116  A    between atoms: _281  and  _284
REMARK  117  A    between atoms: _284  and  _285
REMARK  118  A    between atoms: _285  and  _286
REMARK  119  A    between atoms: _290  and  _291
REMARK  120  A    between atoms: _296  and  _298
REMARK  121  A    between atoms: _298  and  _299
REMARK  122  A    between atoms: _298  and  _301
REMARK  123  A    between atoms: _304  and  _306
REMARK  124  A    between atoms: _306  and  _307
REMARK  125  A    between atoms: _306  and  _309
REMARK  126  A    between atoms: _309  and  _310
REMARK  127  A    between atoms: _310  and  _311
REMARK  128  A    between atoms: _316  and  _318
REMARK  129  A    between atoms: _318  and  _319
REMARK  130  A    between atoms: _318  and  _321
REMARK  131  A    between atoms: _321  and  _322
REMARK  132  A    between atoms: _325  and  _327
REMARK  133  A    between atoms: _327  and  _328
REMARK  134  A    between atoms: _327  and  _330
REMARK  135  A    between atoms: _330  and  _331
REMARK  136  A    between atoms: _334  and  _336
REMARK  137  A    between atoms: _336  and  _337
REMARK  138  A    between atoms: _336  and  _339
REMARK  139  A    between atoms: _339  and  _340
REMARK  140  A    between atoms: _346  and  _348
REMARK  141  A    between atoms: _348  and  _349
REMARK  142  A    between atoms: _348  and  _351
REMARK  143  A    between atoms: _351  and  _352
REMARK  144  A    between atoms: _355  and  _357
REMARK  145  A    between atoms: _357  and  _358
REMARK  146  A    between atoms: _357  and  _360
REMARK  147  A    between atoms: _360  and  _361
REMARK  148  A    between atoms: _367  and  _369
REMARK  149  A    between atoms: _369  and  _370
REMARK  150  A    between atoms: _369  and  _372
REMARK  151  A    between atoms: _372  and  _373
REMARK  152  A    between atoms: _376  and  _378
REMARK  153  A    between atoms: _378  and  _379
REMARK  154  A    between atoms: _378  and  _381
REMARK  155  A    between atoms: _381  and  _382
REMARK  156  A    between atoms: _385  and  _387
REMARK  157  A    between atoms: _387  and  _388
REMARK  158  A    between atoms: _387  and  _390
REMARK  159  A    between atoms: _390  and  _391
REMARK  160  A    between atoms: _391  and  _392
REMARK  161  A    between atoms: _395  and  _397
REMARK  162  A    between atoms: _397  and  _398
REMARK  163  A    between atoms: _397  and  _400
REMARK  164  A    between atoms: _400  and  _401
REMARK  165  A    between atoms: _406  and  _408
REMARK  166  A    between atoms: _408  and  _409
REMARK  167  A    between atoms: _408  and  _411
REMARK  168  A    between atoms: _411  and  _412
REMARK  169  A    between atoms: _415  and  _417
REMARK  170  A    between atoms: _417  and  _418
REMARK  171  A    between atoms: _417  and  _420
REMARK  172  A    between atoms: _420  and  _421
REMARK  173  A    between atoms: _424  and  _426
REMARK  174  A    between atoms: _426  and  _427
REMARK  175  A    between atoms: _426  and  _429
REMARK  176  A    between atoms: _429  and  _430
REMARK  177  A    between atoms: _433  and  _435
REMARK  178  A    between atoms: _435  and  _436
REMARK  179  A    between atoms: _435  and  _438
REMARK  180  A    between atoms: _438  and  _439
REMARK  181  A    between atoms: _442  and  _444
REMARK  182  A    between atoms: _444  and  _445
REMARK  183  A    between atoms: _444  and  _447
REMARK  184  A    between atoms: _447  and  _448
REMARK  185  A    between atoms: _451  and  _453
REMARK  186  A    between atoms: _453  and  _454
REMARK  187  A    between atoms: _453  and  _456
REMARK  188  A    between atoms: _456  and  _457
REMARK  189  A    between atoms: _457  and  _458
REMARK  190  A    between atoms: _458  and  _459
REMARK  191  A    between atoms: _459  and  _460
REMARK  192  A    between atoms: _464  and  _466
REMARK  193  A    between atoms: _466  and  _467
REMARK  194  A    between atoms: _466  and  _469
REMARK  195  A    between atoms: _469  and  _470
REMARK  196  A    between atoms: _473  and  _475
REMARK  197  A    between atoms: _475  and  _476
REMARK  198  A    between atoms: _475  and  _478
REMARK  199  A    between atoms: _478  and  _479
REMARK  200  A    between atoms: _482  and  _484
REMARK  201  A    between atoms: _484  and  _485
REMARK  202  A    between atoms: _484  and  _487
REMARK  203  A    between atoms: _487  and  _488
REMARK  204  A    between atoms: _491  and  _493
REMARK  205  A    between atoms: _493  and  _494
REMARK  206  A    between atoms: _493  and  _496
REMARK  207  A    between atoms: _496  and  _497
REMARK  208  A    between atoms: _503  and  _505
REMARK  209  A    between atoms: _505  and  _506
REMARK  210  A    between atoms: _508  and  _510
REMARK  211  A    between atoms: _510  and  _511
REMARK  212  A    between atoms: _510  and  _513
REMARK  213  A    between atoms: _513  and  _514
REMARK                            x       y       z     vdW  Elec       q    Type
REMARK                         _______ _______ _______ _____ _____    ______ ____
ROOT
ATOM      1  CA  LEU A   1     -13.848 -34.260  -9.795  0.00  0.00    +0.133 C 
ENDROOT
BRANCH   1   2
ATOM      2  N   LEU A   1     -12.758 -33.297  -9.932  0.00  0.00    -0.239 NA
ATOM      3  H   LEU A   1     -12.897 -32.318  -9.611  0.00  0.00    +0.142 HD
ENDBRANCH   1   2
BRANCH   1   4
ATOM      4  C   LEU A   1     -14.229 -34.859 -11.144  0.00  0.00    +0.224 C 
ATOM      5  O   LEU A   1     -14.381 -36.076 -11.267  0.00  0.00    -0.287 OA
ENDBRANCH   1   4
BRANCH   1   6
ATOM      6  CB  LEU A   1     -15.069 -33.629  -9.114  0.00  0.00    +0.025 C 
BRANCH   6   7
ATOM      7  CG  LEU A   1     -15.047 -33.587  -7.583  0.00  0.00    +0.002 C 
ATOM      8  CD2 LEU A   1     -15.243 -34.983  -7.001  0.00  0.00    +0.000 C 
ATOM      9  CD1 LEU A   1     -16.109 -32.637  -7.054  0.00  0.00    +0.000 C 
ENDBRANCH   6   7
ENDBRANCH   1   6
TORSDOF 4
REMARK  Name = ../refined-set-2016/4k18/4k18_pocket.pdb
REMARK  213 active torsions:
REMARK  status: ('A' for Active; 'I' for Inactive)
REMARK    1  A    between atoms: _1  and  _3
REMARK    2  A    between atoms: _3  and  _4
REMARK    3  A    between atoms: _3  and  _6
REMARK    4  A    between atoms: _6  and  _7
REMARK    5  A    between atoms: _10  and  _12
REMARK    6  A    between atoms: _12  and  _13
REMARK    7  A    between atoms: _12  and  _15
REMARK    8  A    between atoms: _15  and  _16
REMARK    9  A    between atoms: _19  and  _21
REMARK   10  A    between atoms: _21  and  _22
REMARK   11  A    between atoms: _24  and  _26
REMARK   12  A    between atoms: _26  and  _27
REMARK   13  A    between atoms: _26  and  _29
REMARK   14  A    between atoms: _29  and  _30
REMARK   15  A    between atoms: _32  and  _34
REMARK   16  A    between atoms: _34  and  _35
REMARK   17  A    between atoms: _37  and  _39
REMARK   18  A    between atoms: _39  and  _40
REMARK   19  A    between atoms: _42  and  _44
REMARK   20  A    between atoms: _44  and  _45
REMARK   21  A    between atoms: _44  and  _47
REMARK   22  A    between atoms: _47  and  _48
REMARK   23  A    between atoms: _54  and  _56
REMARK   24  A    between atoms: _56  and  _57
REMARK   25  A    between atoms: _59  and  _61
REMARK   26  A    between atoms: _61  and  _62
REMARK   27  A    between atoms: _61  and  _64
REMARK   28  A    between atoms: _64  and  _65
REMARK   29  A    between atoms: _67  and  _69
REMARK   30  A    between atoms: _69  and  _70
REMARK   31  A    between atoms: _69  and  _72
REMARK   32  A    between atoms: _75  and  _77
REMARK   33  A    between atoms: _77  and  _78
REMARK   34  A    between atoms: _77  and  _80
REMARK   35  A    between atoms: _80  and  _81
REMARK   36  A    between atoms: _86  and  _87
REMARK   37  A    between atoms: _89  and  _91
REMARK   38  A    between atoms: _91  and  _92
REMARK   39  A    between atoms: _91  and  _94
REMARK   40  A    between atoms: _94  and  _95
REMARK   41  A    between atoms: _97  and  _99
REMARK   42  A    between atoms: _99  and  _100
REMARK   43  A    between atoms: _103  and  _104
REMARK   44  A    between atoms: _109  and  _111
REMARK   45  A    between atoms: _111  and  _112
REMARK   46  A    between atoms: _111  and  _114
REMARK   47  A    between atoms: _117  and  _119
REMARK   48  A    between atoms: _119  and  _120
REMARK   49  A    between atoms: _123  and  _125
REMARK   50  A    between atoms: _125  and  _126
REMARK   51  A    between atoms: _125  and  _128
REMARK   52  A    between atoms: _128  and  _129
REMARK   53  A    between atoms: _132  and  _134
REMARK   54  A    between atoms: _134  and  _135
REMARK   55  A    between atoms: _134  and  _137
REMARK   56  A    between atoms: _137  and  _138
REMARK   57  A    between atoms: _138  and  _139
REMARK   58  A    between atoms: _139  and  _140
REMARK   59  A    between atoms: _140  and  _141
REMARK   60  A    between atoms: _145  and  _147
REMARK   61  A    between atoms: _147  and  _148
REMARK   62  A    between atoms: _147  and  _150
REMARK   63  A    between atoms: _150  and  _151
REMARK   64  A    between atoms: _156  and  _158
REMARK   65  A    between atoms: _158  and  _159
REMARK   66  A    between atoms: _158  and  _161
REMARK   67  A    between atoms: _164  and  _166
REMARK   68  A    between atoms: _166  and  _167
REMARK   69  A    between atoms: _166  and  _169
REMARK   70  A    between atoms: _169  and  _170
REMARK   71  A    between atoms: _170  and  _171
REMARK   72  A    between atoms: _174  and  _176
REMARK   73  A    between atoms: _176  and  _177
REMARK   74  A    between atoms: _176  and  _179
REMARK   75  A    between atoms: _179  and  _180
REMARK   76  A    between atoms: _183  and  _185
REMARK   77  A    between atoms: _185  and  _186
REMARK   78  A    between atoms: _185  and  _188
REMARK   79  A    between atoms: _188  and  _189
REMARK   80  A    between atoms: _192  and  _194
REMARK   81  A    between atoms: _194  and  _195
REMARK   82  A    between atoms: _194  and  _197
REMARK   83  A    between atoms: _197  and  _198
REMARK   84  A    between atoms: _198  and  _199
REMARK   85  A    between atoms: _199  and  _200
REMARK   86  A    between atoms: _209  and  _211
REMARK   87  A    between atoms: _211  and  _212
REMARK   88  A    between atoms: _211  and  _214
REMARK   89  A    between atoms: _214  and  _215
REMARK   90  A    between atoms: _218  and  _220
REMARK   91  A    between atoms: _220  and  _221
REMARK   92  A    between atoms: _220  and  _223
REMARK   93  A    between atoms: _223  and  _224
REMARK   94  A    between atoms: _227  and  _229
REMARK   95  A    between atoms: _229  and  _230
REMARK   96  A    between atoms: _229  and  _232
REMARK   97  A    between atoms: _232  and  _233
REMARK   98  A    between atoms: _236  and  _238
REMARK   99  A    between atoms: _238  and  _239
REMARK  100  A    between atoms: _238  and  _241
REMARK  101  A    between atoms: _241  and  _242
REMARK  102  A    between atoms: _245  and  _247
REMARK  103  A    between atoms: _247  and  _248
REMARK  104  A    between atoms: _247  and  _250
REMARK  105  A    between atoms: _250  and  _251
REMARK  106  A    between atoms: _251  and  _252
REMARK  107  A    between atoms: _255  and  _257
REMARK  108  A    between atoms: _257  and  _258
REMARK  109  A    between atoms: _257  and  _260
REMARK  110  A    between atoms: _260  and  _261
REMARK  111  A    between atoms: _261  and  _262
REMARK  112  A    between atoms: _262  and  _263
REMARK  113  A    between atoms: _273  and  _274
REMARK  114  A    between atoms: _279  and  _281
REMARK  115  A    between atoms: _281  and  _282
REMARK  116  A    between atoms: _281  and  _284
REMARK  117  A    between atoms: _284  and  _285
REMARK  118  A    between atoms: _285  and  _286
REMARK  119  A    between atoms: _290  and  _291
REMARK  120  A    between atoms: _296  and  _298
REMARK  121  A    between atoms: _298  and  _299
REMARK  122  A    between atoms: _298  and  _301
REMARK  123  A    between atoms: _304  and  _306
REMARK  124  A    between atoms: _306  and  _307
REMARK  125  A    between atoms: _306  and  _309
REMARK  126  A    between atoms: _309  and  _310
REMARK  127  A    between atoms: _310  and  _311
REMARK  128  A    between atoms: _316  and  _318
REMARK  129  A    between atoms: _318  and  _319
REMARK  130  A    between atoms: _318  and  _321
REMARK  131  A    between atoms: _321  and  _322
REMARK  132  A    between atoms: _325  and  _327
REMARK  133  A    between atoms: _327  and  _328
REMARK  134  A    between atoms: _327  and  _330
REMARK  135  A    between atoms: _330  and  _331
REMARK  136  A    between atoms: _334  and  _336
REMARK  137  A    between atoms: _336  and  _337
REMARK  138  A    between atoms: _336  and  _339
REMARK  139  A    between atoms: _339  and  _340
REMARK  140  A    between atoms: _346  and  _348
REMARK  141  A    between atoms: _348  and  _349
REMARK  142  A    between atoms: _348  and  _351
REMARK  143  A    between atoms: _351  and  _352
REMARK  144  A    between atoms: _355  and  _357
REMARK  145  A    between atoms: _357  and  _358
REMARK  146  A    between atoms: _357  and  _360
REMARK  147  A    between atoms: _360  and  _361
REMARK  148  A    between atoms: _367  and  _369
REMARK  149  A    between atoms: _369  and  _370
REMARK  150  A    between atoms: _369  and  _372
REMARK  151  A    between atoms: _372  and  _373
REMARK  152  A    between atoms: _376  and  _378
REMARK  153  A    between atoms: _378  and  _379
REMARK  154  A    between atoms: _378  and  _381
REMARK  155  A    between atoms: _381  and  _382
REMARK  156  A    between atoms: _385  and  _387
REMARK  157  A    between atoms: _387  and  _388
REMARK  158  A    between atoms: _387  and  _390
REMARK  159  A    between atoms: _390  and  _391
REMARK  160  A    between atoms: _391  and  _392
REMARK  161  A    between atoms: _395  and  _397
REMARK  162  A    between atoms: _397  and  _398
REMARK  163  A    between atoms: _397  and  _400
REMARK  164  A    between atoms: _400  and  _401
REMARK  165  A    between atoms: _406  and  _408
REMARK  166  A    between atoms: _408  and  _409
REMARK  167  A    between atoms: _408  and  _411
REMARK  168  A    between atoms: _411  and  _412
REMARK  169  A    between atoms: _415  and  _417
REMARK  170  A    between atoms: _417  and  _418
REMARK  171  A    between atoms: _417  and  _420
REMARK  172  A    between atoms: _420  and  _421
REMARK  173  A    between atoms: _424  and  _426
REMARK  174  A    between atoms: _426  and  _427
REMARK  175  A    between atoms: _426  and  _429
REMARK  176  A    between atoms: _429  and  _430
REMARK  177  A    between atoms: _433  and  _435
REMARK  178  A    between atoms: _435  and  _436
REMARK  179  A    between atoms: _435  and  _438
REMARK  180  A    between atoms: _438  and  _439
REMARK  181  A    between atoms: _442  and  _444
REMARK  182  A    between atoms: _444  and  _445
REMARK  183  A    between atoms: _444  and  _447
REMARK  184  A    between atoms: _447  and  _448
REMARK  185  A    between atoms: _451  and  _453
REMARK  186  A    between atoms: _453  and  _454
REMARK  187  A    between atoms: _453  and  _456
REMARK  188  A    between atoms: _456  and  _457
REMARK  189  A    between atoms: _457  and  _458
REMARK  190  A    between atoms: _458  and  _459
REMARK  191  A    between atoms: _459  and  _460
REMARK  192  A    between atoms: _464  and  _466
REMARK  193  A    between atoms: _466  and  _467
REMARK  194  A    between atoms: _466  and  _469
REMARK  195  A    between atoms: _469  and  _470
REMARK  196  A    between atoms: _473  and  _475
REMARK  197  A    between atoms: _475  and  _476
REMARK  198  A    between atoms: _475  and  _478
REMARK  199  A    between atoms: _478  and  _479
REMARK  200  A    between atoms: _482  and  _484
REMARK  201  A    between atoms: _484  and  _485
REMARK  202  A    between atoms: _484  and  _487
REMARK  203  A    between atoms: _487  and  _488
REMARK  204  A    between atoms: _491  and  _493
REMARK  205  A    between atoms: _493  and  _494
REMARK  206  A    between atoms: _493  and  _496
REMARK  207  A    between atoms: _496  and  _497
REMARK  208  A    between atoms: _503  and  _505
REMARK  209  A    between atoms: _505  and  _506
REMARK  210  A    between atoms: _508  and  _510
REMARK  211  A    between atoms: _510  and  _511
REMARK  212  A    between atoms: _510  and  _513
REMARK  213  A    between atoms: _513  and  _514
REMARK                            x       y       z     vdW  Elec       q    Type
REMARK                         _______ _______ _______ _____ _____    ______ ____
ROOT
ATOM      1  CA  ARG A   2     -18.426 -39.266  -8.407  0.00  0.00    +0.149 C 
ENDROOT
BRANCH   1   4
ATOM      2  C   ILE A   1     -17.486 -39.597  -6.196  0.00  0.00    +0.238 C 
ATOM      3  O   ILE A   1     -16.678 -38.685  -6.363  0.00  0.00    -0.274 OA
ATOM      4  N   ARG A   2     -18.398 -39.922  -7.104  0.00  0.00    -0.297 N 
ATOM      5  H   ARG A   2     -19.103 -40.655  -6.884  0.00  0.00    +0.150 HD
BRANCH   2   6
ATOM      6  CA  ILE A   1     -17.451 -40.440  -4.928  0.00  0.00    +0.145 C 
BRANCH   6   7
ATOM      7  N   ILE A   1     -16.091 -40.951  -4.794  0.00  0.00    -0.238 NA
ATOM      8  H   ILE A   1     -15.477 -40.593  -4.034  0.00  0.00    +0.142 HD
ENDBRANCH   6   7
BRANCH   6   9
ATOM      9  CB  ILE A   1     -17.880 -39.603  -3.706  0.00  0.00    +0.025 C 
ATOM     10  CG2 ILE A   1     -19.100 -38.749  -4.043  0.00  0.00    +0.002 C 
BRANCH   9  11
ATOM     11  CG1 ILE A   1     -18.189 -40.515  -2.519  0.00  0.00    +0.002 C 
ATOM     12  CD1 ILE A   1     -19.438 -41.358  -2.695  0.00  0.00    +0.000 C 
ENDBRANCH   9  11
ENDBRANCH   6   9
ENDBRANCH   2   6
ENDBRANCH   1   4
BRANCH   1  13
ATOM     13  C   ARG A   2     -19.273 -38.000  -8.412  0.00  0.00    +0.241 C 
ATOM     14  O   ARG A   2     -20.286 -37.917  -7.723  0.00  0.00    -0.273 OA
ATOM     15  N   LEU A   3     -18.842 -37.024  -9.204  0.00  0.00    -0.298 N 
ATOM     16  H   LEU A   3     -17.909 -37.119  -9.654  0.00  0.00    +0.150 HD
BRANCH  15  17
ATOM     17  CA  LEU A   3     -19.628 -35.826  -9.465  0.00  0.00    +0.137 C 
BRANCH  17  18
ATOM     18  C   LEU A   3     -20.641 -36.131 -10.564  0.00  0.00    +0.227 C 
ATOM     19  O   LEU A   3     -20.269 -36.384 -11.704  0.00  0.00    -0.286 OA
ENDBRANCH  17  18
BRANCH  17  20
ATOM     20  CB  LEU A   3     -18.718 -34.683  -9.909  0.00  0.00    +0.028 C 
BRANCH  20  21
ATOM     21  CG  LEU A   3     -19.416 -33.348 -10.185  0.00  0.00    +0.002 C 
ATOM     22  CD2 LEU A   3     -19.934 -32.747  -8.879  0.00  0.00    +0.000 C 
ATOM     23  CD1 LEU A   3     -18.481 -32.380 -10.898  0.00  0.00    +0.000 C 
ENDBRANCH  20  21
ENDBRANCH  17  20
ENDBRANCH  15  17
ENDBRANCH   1  13
BRANCH   1  24
ATOM     24  CB  ARG A   2     -18.961 -40.226  -9.463  0.00  0.00    +0.033 C 
BRANCH  24  25
ATOM     25  CG  ARG A   2     -18.343 -41.602  -9.380  0.00  0.00    +0.045 C 
BRANCH  25  26
ATOM     26  CD  ARG A   2     -17.678 -41.966 -10.674  0.00  0.00    +0.174 C 
BRANCH  26  27
ATOM     27  NE  ARG A   2     -18.409 -43.000 -11.401  0.00  0.00    -0.265 N 
ATOM     28  HE  ARG A   2     -18.071 -43.980 -11.321  0.00  0.00    +0.259 HD
ATOM     29  CZ  ARG A   2     -19.478 -42.772 -12.159  0.00  0.00    +0.342 C 
ATOM     30  NH2 ARG A   2     -19.958 -41.542 -12.291  0.00  0.00    -0.292 N 
ATOM     31 HH21 ARG A   2     -19.498 -40.749 -11.800  0.00  0.00    +0.255 HD
ATOM     32 HH22 ARG A   2     -20.794 -41.371 -12.885  0.00  0.00    +0.255 HD
ATOM     33  NH1 ARG A   2     -20.072 -43.779 -12.785  0.00  0.00    -0.292 N 
ATOM     34 HH11 ARG A   2     -19.702 -44.746 -12.683  0.00  0.00    +0.255 HD
ATOM     35 HH12 ARG A   2     -20.908 -43.602 -13.378  0.00  0.00    +0.255 HD
ENDBRANCH  26  27
ENDBRANCH  25  26
ENDBRANCH  24  25
ENDBRANCH   1  24
TORSDOF 14
REMARK  Name = ../refined-set-2016/4k18/4k18_pocket.pdb
REMARK  213 active torsions:
REMARK  status: ('A' for Active; 'I' for Inactive)
REMARK    1  A    between atoms: _1  and  _3
REMARK    2  A    between atoms: _3  and  _4
REMARK    3  A    between atoms: _3  and  _6
REMARK    4  A    between atoms: _6  and  _7
REMARK    5  A    between atoms: _10  and  _12
REMARK    6  A    between atoms: _12  and  _13
REMARK    7  A    between atoms: _12  and  _15
REMARK    8  A    between atoms: _15  and  _16
REMARK    9  A    between atoms: _19  and  _21
REMARK   10  A    between atoms: _21  and  _22
REMARK   11  A    between atoms: _24  and  _26
REMARK   12  A    between atoms: _26  and  _27
REMARK   13  A    between atoms: _26  and  _29
REMARK   14  A    between atoms: _29  and  _30
REMARK   15  A    between atoms: _32  and  _34
REMARK   16  A    between atoms: _34  and  _35
REMARK   17  A    between atoms: _37  and  _39
REMARK   18  A    between atoms: _39  and  _40
REMARK   19  A    between atoms: _42  and  _44
REMARK   20  A    between atoms: _44  and  _45
REMARK   21  A    between atoms: _44  and  _47
REMARK   22  A    between atoms: _47  and  _48
REMARK   23  A    between atoms: _54  and  _56
REMARK   24  A    between atoms: _56  and  _57
REMARK   25  A    between atoms: _59  and  _61
REMARK   26  A    between atoms: _61  and  _62
REMARK   27  A    between atoms: _61  and  _64
REMARK   28  A    between atoms: _64  and  _65
REMARK   29  A    between atoms: _67  and  _69
REMARK   30  A    between atoms: _69  and  _70
REMARK   31  A    between atoms: _69  and  _72
REMARK   32  A    between atoms: _75  and  _77
REMARK   33  A    between atoms: _77  and  _78
REMARK   34  A    between atoms: _77  and  _80
REMARK   35  A    between atoms: _80  and  _81
REMARK   36  A    between atoms: _86  and  _87
REMARK   37  A    between atoms: _89  and  _91
REMARK   38  A    between atoms: _91  and  _92
REMARK   39  A    between atoms: _91  and  _94
REMARK   40  A    between atoms: _94  and  _95
REMARK   41  A    between atoms: _97  and  _99
REMARK   42  A    between atoms: _99  and  _100
REMARK   43  A    between atoms: _103  and  _104
REMARK   44  A    between atoms: _109  and  _111
REMARK   45  A    between atoms: _111  and  _112
REMARK   46  A    between atoms: _111  and  _114
REMARK   47  A    between atoms: _117  and  _119
REMARK   48  A    between atoms: _119  and  _120
REMARK   49  A    between atoms: _123  and  _125
REMARK   50  A    between atoms: _125  and  _126
REMARK   51  A    between atoms: _125  and  _128
REMARK   52  A    between atoms: _128  and  _129
REMARK   53  A    between atoms: _132  and  _134
REMARK   54  A    between atoms: _134  and  _135
REMARK   55  A    between atoms: _134  and  _137
REMARK   56  A    between atoms: _137  and  _138
REMARK   57  A    between atoms: _138  and  _139
REMARK   58  A    between atoms: _139  and  _140
REMARK   59  A    between atoms: _140  and  _141
REMARK   60  A    between atoms: _145  and  _147
REMARK   61  A    between atoms: _147  and  _148
REMARK   62  A    between atoms: _147  and  _150
REMARK   63  A    between atoms: _150  and  _151
REMARK   64  A    between atoms: _156  and  _158
REMARK   65  A    between atoms: _158  and  _159
REMARK   66  A    between atoms: _158  and  _161
REMARK   67  A    between atoms: _164  and  _166
REMARK   68  A    between atoms: _166  and  _167
REMARK   69  A    between atoms: _166  and  _169
REMARK   70  A    between atoms: _169  and  _170
REMARK   71  A    between atoms: _170  and  _171
REMARK   72  A    between atoms: _174  and  _176
REMARK   73  A    between atoms: _176  and  _177
REMARK   74  A    between atoms: _176  and  _179
REMARK   75  A    between atoms: _179  and  _180
REMARK   76  A    between atoms: _183  and  _185
REMARK   77  A    between atoms: _185  and  _186
REMARK   78  A    between atoms: _185  and  _188
REMARK   79  A    between atoms: _188  and  _189
REMARK   80  A    between atoms: _192  and  _194
REMARK   81  A    between atoms: _194  and  _195
REMARK   82  A    between atoms: _194  and  _197
REMARK   83  A    between atoms: _197  and  _198
REMARK   84  A    between atoms: _198  and  _199
REMARK   85  A    between atoms: _199  and  _200
REMARK   86  A    between atoms: _209  and  _211
REMARK   87  A    between atoms: _211  and  _212
REMARK   88  A    between atoms: _211  and  _214
REMARK   89  A    between atoms: _214  and  _215
REMARK   90  A    between atoms: _218  and  _220
REMARK   91  A    between atoms: _220  and  _221
REMARK   92  A    between atoms: _220  and  _223
REMARK   93  A    between atoms: _223  and  _224
REMARK   94  A    between atoms: _227  and  _229
REMARK   95  A    between atoms: _229  and  _230
REMARK   96  A    between atoms: _229  and  _232
REMARK   97  A    between atoms: _232  and  _233
REMARK   98  A    between atoms: _236  and  _238
REMARK   99  A    between atoms: _238  and  _239
REMARK  100  A    between atoms: _238  and  _241
REMARK  101  A    between atoms: _241  and  _242
REMARK  102  A    between atoms: _245  and  _247
REMARK  103  A    between atoms: _247  and  _248
REMARK  104  A    between atoms: _247  and  _250
REMARK  105  A    between atoms: _250  and  _251
REMARK  106  A    between atoms: _251  and  _252
REMARK  107  A    between atoms: _255  and  _257
REMARK  108  A    between atoms: _257  and  _258
REMARK  109  A    between atoms: _257  and  _260
REMARK  110  A    between atoms: _260  and  _261
REMARK  111  A    between atoms: _261  and  _262
REMARK  112  A    between atoms: _262  and  _263
REMARK  113  A    between atoms: _273  and  _274
REMARK  114  A    between atoms: _279  and  _281
REMARK  115  A    between atoms: _281  and  _282
REMARK  116  A    between atoms: _281  and  _284
REMARK  117  A    between atoms: _284  and  _285
REMARK  118  A    between atoms: _285  and  _286
REMARK  119  A    between atoms: _290  and  _291
REMARK  120  A    between atoms: _296  and  _298
REMARK  121  A    between atoms: _298  and  _299
REMARK  122  A    between atoms: _298  and  _301
REMARK  123  A    between atoms: _304  and  _306
REMARK  124  A    between atoms: _306  and  _307
REMARK  125  A    between atoms: _306  and  _309
REMARK  126  A    between atoms: _309  and  _310
REMARK  127  A    between atoms: _310  and  _311
REMARK  128  A    between atoms: _316  and  _318
REMARK  129  A    between atoms: _318  and  _319
REMARK  130  A    between atoms: _318  and  _321
REMARK  131  A    between atoms: _321  and  _322
REMARK  132  A    between atoms: _325  and  _327
REMARK  133  A    between atoms: _327  and  _328
REMARK  134  A    between atoms: _327  and  _330
REMARK  135  A    between atoms: _330  and  _331
REMARK  136  A    between atoms: _334  and  _336
REMARK  137  A    between atoms: _336  and  _337
REMARK  138  A    between atoms: _336  and  _339
REMARK  139  A    between atoms: _339  and  _340
REMARK  140  A    between atoms: _346  and  _348
REMARK  141  A    between atoms: _348  and  _349
REMARK  142  A    between atoms: _348  and  _351
REMARK  143  A    between atoms: _351  and  _352
REMARK  144  A    between atoms: _355  and  _357
REMARK  145  A    between atoms: _357  and  _358
REMARK  146  A    between atoms: _357  and  _360
REMARK  147  A    between atoms: _360  and  _361
REMARK  148  A    between atoms: _367  and  _369
REMARK  149  A    between atoms: _369  and  _370
REMARK  150  A    between atoms: _369  and  _372
REMARK  151  A    between atoms: _372  and  _373
REMARK  152  A    between atoms: _376  and  _378
REMARK  153  A    between atoms: _378  and  _379
REMARK  154  A    between atoms: _378  and  _381
REMARK  155  A    between atoms: _381  and  _382
REMARK  156  A    between atoms: _385  and  _387
REMARK  157  A    between atoms: _387  and  _388
REMARK  158  A    between atoms: _387  and  _390
REMARK  159  A    between atoms: _390  and  _391
REMARK  160  A    between atoms: _391  and  _392
REMARK  161  A    between atoms: _395  and  _397
REMARK  162  A    between atoms: _397  and  _398
REMARK  163  A    between atoms: _397  and  _400
REMARK  164  A    between atoms: _400  and  _401
REMARK  165  A    between atoms: _406  and  _408
REMARK  166  A    between atoms: _408  and  _409
REMARK  167  A    between atoms: _408  and  _411
REMARK  168  A    between atoms: _411  and  _412
REMARK  169  A    between atoms: _415  and  _417
REMARK  170  A    between atoms: _417  and  _418
REMARK  171  A    between atoms: _417  and  _420
REMARK  172  A    between atoms: _420  and  _421
REMARK  173  A    between atoms: _424  and  _426
REMARK  174  A    between atoms: _426  and  _427
REMARK  175  A    between atoms: _426  and  _429
REMARK  176  A    between atoms: _429  and  _430
REMARK  177  A    between atoms: _433  and  _435
REMARK  178  A    between atoms: _435  and  _436
REMARK  179  A    between atoms: _435  and  _438
REMARK  180  A    between atoms: _438  and  _439
REMARK  181  A    between atoms: _442  and  _444
REMARK  182  A    between atoms: _444  and  _445
REMARK  183  A    between atoms: _444  and  _447
REMARK  184  A    between atoms: _447  and  _448
REMARK  185  A    between atoms: _451  and  _453
REMARK  186  A    between atoms: _453  and  _454
REMARK  187  A    between atoms: _453  and  _456
REMARK  188  A    between atoms: _456  and  _457
REMARK  189  A    between atoms: _457  and  _458
REMARK  190  A    between atoms: _458  and  _459
REMARK  191  A    between atoms: _459  and  _460
REMARK  192  A    between atoms: _464  and  _466
REMARK  193  A    between atoms: _466  and  _467
REMARK  194  A    between atoms: _466  and  _469
REMARK  195  A    between atoms: _469  and  _470
REMARK  196  A    between atoms: _473  and  _475
REMARK  197  A    between atoms: _475  and  _476
REMARK  198  A    between atoms: _475  and  _478
REMARK  199  A    between atoms: _478  and  _479
REMARK  200  A    between atoms: _482  and  _484
REMARK  201  A    between atoms: _484  and  _485
REMARK  202  A    between atoms: _484  and  _487
REMARK  203  A    between atoms: _487  and  _488
REMARK  204  A    between atoms: _491  and  _493
REMARK  205  A    between atoms: _493  and  _494
REMARK  206  A    between atoms: _493  and  _496
REMARK  207  A    between atoms: _496  and  _497
REMARK  208  A    between atoms: _503  and  _505
REMARK  209  A    between atoms: _505  and  _506
REMARK  210  A    between atoms: _508  and  _510
REMARK  211  A    between atoms: _510  and  _511
REMARK  212  A    between atoms: _510  and  _513
REMARK  213  A    between atoms: _513  and  _514
REMARK                            x       y       z     vdW  Elec       q    Type
REMARK                         _______ _______ _______ _____ _____    ______ ____
ROOT
ATOM      1  C   GLU A   7     -26.936 -47.044   2.157  0.00  0.00    +0.244 C 
ATOM      2  N   PRO A   8     -26.544 -47.441   3.379  0.00  0.00    -0.272 N 
ATOM      3  CA  PRO A   8     -25.980 -46.600   4.439  0.00  0.00    +0.152 C 
ATOM      4  CB  PRO A   8     -26.139 -47.470   5.687  0.00  0.00    +0.031 C 
ATOM      5  CG  PRO A   8     -26.056 -48.859   5.173  0.00  0.00    +0.024 C 
ATOM      6  CD  PRO A   8     -26.710 -48.838   3.821  0.00  0.00    +0.094 C 
ATOM      7  O   GLU A   7     -27.424 -47.820   1.338  0.00  0.00    -0.273 OA
ENDROOT
BRANCH   3   8
ATOM      8  C   PRO A   8     -24.503 -46.277   4.213  0.00  0.00    +0.241 C 
ATOM      9  N   VAL A   9     -24.036 -45.206   4.843  0.00  0.00    -0.297 N 
ATOM     10  H   VAL A   9     -24.668 -44.671   5.472  0.00  0.00    +0.150 HD
ATOM     11  O   PRO A   8     -23.810 -46.984   3.479  0.00  0.00    -0.273 OA
BRANCH   9  12
ATOM     12  CA  VAL A   9     -22.658 -44.763   4.674  0.00  0.00    +0.149 C 
BRANCH  12  13
ATOM     13  C   VAL A   9     -22.126 -44.204   5.991  0.00  0.00    +0.241 C 
ATOM     14  O   VAL A   9     -22.888 -43.694   6.818  0.00  0.00    -0.273 OA
ATOM     15  N   GLN A  10     -20.818 -44.324   6.189  0.00  0.00    -0.297 N 
ATOM     16  H   GLN A  10     -20.246 -44.823   5.478  0.00  0.00    +0.150 HD
BRANCH  15  17
ATOM     17  CA  GLN A  10     -20.159 -43.781   7.368  0.00  0.00    +0.149 C 
BRANCH  17  18
ATOM     18  C   GLN A  10     -18.727 -43.420   6.991  0.00  0.00    +0.241 C 
ATOM     19  N   ASP A  11     -18.225 -42.286   7.471  0.00  0.00    -0.297 N 
ATOM     20  H   ASP A  11     -18.813 -41.648   8.044  0.00  0.00    +0.150 HD
ATOM     21  O   GLN A  10     -18.077 -44.169   6.258  0.00  0.00    -0.273 OA
BRANCH  19  22
ATOM     22  CA  ASP A  11     -16.836 -41.954   7.179  0.00  0.00    +0.160 C 
BRANCH  22  23
ATOM     23  C   ASP A  11     -15.890 -42.793   8.034  0.00  0.00    +0.241 C 
ATOM     24  O   ASP A  11     -16.265 -43.283   9.104  0.00  0.00    -0.273 OA
ATOM     25  N   LEU A  12     -14.672 -42.973   7.545  0.00  0.00    -0.297 N 
ATOM     26  H   LEU A  12     -14.403 -42.497   6.660  0.00  0.00    +0.150 HD
BRANCH  25  27
ATOM     27  CA  LEU A  12     -13.702 -43.823   8.219  0.00  0.00    +0.149 C 
BRANCH  27  28
ATOM     28  C   LEU A  12     -13.344 -43.281   9.599  0.00  0.00    +0.241 C 
ATOM     29  O   LEU A  12     -13.091 -44.050  10.523  0.00  0.00    -0.273 OA
ATOM     30  N   PHE A  13     -13.336 -41.957   9.733  0.00  0.00    -0.297 N 
ATOM     31  H   PHE A  13     -13.567 -41.363   8.911  0.00  0.00    +0.150 HD
BRANCH  30  32
ATOM     32  CA  PHE A  13     -13.010 -41.317  11.006  0.00  0.00    +0.153 C 
BRANCH  32  33
ATOM     33  C   PHE A  13     -13.977 -41.763  12.100  0.00  0.00    +0.241 C 
ATOM     34  O   PHE A  13     -13.557 -42.162  13.187  0.00  0.00    -0.273 OA
ATOM     35  N   ASP A  14     -15.271 -41.698  11.799  0.00  0.00    -0.297 N 
ATOM     36  H   ASP A  14     -15.556 -41.316  10.874  0.00  0.00    +0.150 HD
BRANCH  35  37
ATOM     37  CA  ASP A  14     -16.303 -42.147  12.729  0.00  0.00    +0.160 C 
BRANCH  37  38
ATOM     38  C   ASP A  14     -16.205 -43.645  12.966  0.00  0.00    +0.241 C 
ATOM     39  O   ASP A  14     -16.424 -44.126  14.079  0.00  0.00    -0.273 OA
ATOM     40  N   PHE A  15     -15.887 -44.378  11.903  0.00  0.00    -0.298 N 
ATOM     41  H   PHE A  15     -15.696 -43.899  11.000  0.00  0.00    +0.150 HD
BRANCH  40  42
ATOM     42  CA  PHE A  15     -15.798 -45.829  11.964  0.00  0.00    +0.141 C 
BRANCH  42  43
ATOM     43  C   PHE A  15     -14.716 -46.269  12.941  0.00  0.00    +0.227 C 
ATOM     44  O   PHE A  15     -14.954 -47.131  13.785  0.00  0.00    -0.286 OA
ENDBRANCH  42  43
BRANCH  42  45
ATOM     45  CB  PHE A  15     -15.529 -46.408  10.571  0.00  0.00    +0.054 C 
BRANCH  45  46
ATOM     46  CG  PHE A  15     -15.545 -47.908  10.524  0.00  0.00    -0.020 A 
ATOM     47  CD2 PHE A  15     -14.366 -48.630  10.606  0.00  0.00    -0.004 A 
ATOM     48  CE2 PHE A  15     -14.376 -50.012  10.562  0.00  0.00    -0.000 A 
ATOM     49  CZ  PHE A  15     -15.572 -50.687  10.431  0.00  0.00    -0.000 A 
ATOM     50  CE1 PHE A  15     -16.755 -49.979  10.345  0.00  0.00    -0.000 A 
ATOM     51  CD1 PHE A  15     -16.738 -48.596  10.391  0.00  0.00    -0.004 A 
ENDBRANCH  45  46
ENDBRANCH  42  45
ENDBRANCH  40  42
ENDBRANCH  37  38
BRANCH  37  52
ATOM     52  CB  ASP A  14     -17.695 -41.820  12.185  0.00  0.00    +0.143 C 
BRANCH  52  53
ATOM     53  CG  ASP A  14     -18.052 -40.357  12.330  0.00  0.00    +0.367 C 
ATOM     54  OD2 ASP A  14     -17.346 -39.642  13.074  0.00  0.00    -0.246 OA
ATOM     55  OD1 ASP A  14     -19.050 -39.926  11.712  0.00  0.00    -0.246 OA
ENDBRANCH  52  53
ENDBRANCH  37  52
ENDBRANCH  35  37
ENDBRANCH  32  33
BRANCH  32  56
ATOM     56  CB  PHE A  13     -13.032 -39.790  10.867  0.00  0.00    +0.055 C 
BRANCH  56  57
ATOM     57  CG  PHE A  13     -12.835 -39.063  12.166  0.00  0.00    -0.020 A 
ATOM     58  CD2 PHE A  13     -13.924 -38.637  12.911  0.00  0.00    -0.004 A 
ATOM     59  CE2 PHE A  13     -13.747 -37.971  14.111  0.00  0.00    -0.000 A 
ATOM     60  CZ  PHE A  13     -12.472 -37.720  14.573  0.00  0.00    -0.000 A 
ATOM     61  CE1 PHE A  13     -11.377 -38.135  13.839  0.00  0.00    -0.000 A 
ATOM     62  CD1 PHE A  13     -11.561 -38.804  12.643  0.00  0.00    -0.004 A 
ENDBRANCH  56  57
ENDBRANCH  32  56
ENDBRANCH  30  32
ENDBRANCH  27  28
BRANCH  27  63
ATOM     63  CB  LEU A  12     -12.448 -43.973   7.356  0.00  0.00    +0.029 C 
BRANCH  63  64
ATOM     64  CG  LEU A  12     -11.312 -44.843   7.899  0.00  0.00    +0.002 C 
ATOM     65  CD2 LEU A  12     -11.793 -46.258   8.207  0.00  0.00    +0.000 C 
ATOM     66  CD1 LEU A  12     -10.174 -44.869   6.889  0.00  0.00    +0.000 C 
ENDBRANCH  63  64
ENDBRANCH  27  63
ENDBRANCH  25  27
ENDBRANCH  22  23
BRANCH  22  67
ATOM     67  CB  ASP A  11     -16.539 -40.443   7.254  0.00  0.00    +0.143 C 
BRANCH  67  68
ATOM     68  CG  ASP A  11     -16.649 -39.867   8.662  0.00  0.00    +0.367 C 
ATOM     69  OD2 ASP A  11     -16.108 -40.454   9.623  0.00  0.00    -0.246 OA
ATOM     70  OD1 ASP A  11     -17.265 -38.790   8.800  0.00  0.00    -0.246 OA
ENDBRANCH  67  68
ENDBRANCH  22  67
ENDBRANCH  19  22
ENDBRANCH  17  18
BRANCH  17  71
ATOM     71  CB  GLN A  10     -20.153 -44.820   8.493  0.00  0.00    +0.039 C 
BRANCH  71  72
ATOM     72  CG  GLN A  10     -19.570 -44.316   9.807  0.00  0.00    +0.087 C 
BRANCH  72  73
ATOM     73  CD  GLN A  10     -19.529 -45.390  10.883  0.00  0.00    +0.219 C 
ATOM     74  NE2 GLN A  10     -19.723 -44.983  12.130  0.00  0.00    -0.329 N 
ATOM     75 HE21 GLN A  10     -19.709 -45.671  12.910  0.00  0.00    +0.145 HD
ATOM     76 HE22 GLN A  10     -19.889 -43.976  12.328  0.00  0.00    +0.145 HD
ATOM     77  OE1 GLN A  10     -19.328 -46.569  10.594  0.00  0.00    -0.275 OA
ENDBRANCH  72  73
ENDBRANCH  71  72
ENDBRANCH  17  71
ENDBRANCH  15  17
ENDBRANCH  12  13
BRANCH  12  78
ATOM     78  CB  VAL A   9     -22.545 -43.694   3.550  0.00  0.00    +0.027 C 
ATOM     79  CG2 VAL A   9     -23.143 -42.370   4.005  0.00  0.00    +0.002 C 
ATOM     80  CG1 VAL A   9     -21.102 -43.509   3.112  0.00  0.00    +0.002 C 
ENDBRANCH  12  78
ENDBRANCH   9  12
ENDBRANCH   3   8
BRANCH   1  81
ATOM     81  CA  GLU A   7     -26.754 -45.568   1.804  0.00  0.00    +0.149 C 
BRANCH  81  84
ATOM     82  C   PRO A   6     -25.073 -44.401   0.479  0.00  0.00    +0.241 C 
ATOM     83  O   PRO A   6     -24.995 -43.480   1.292  0.00  0.00    -0.273 OA
ATOM     84  N   GLU A   7     -25.895 -45.433   0.631  0.00  0.00    -0.297 N 
ATOM     85  H   GLU A   7     -25.928 -46.166  -0.106  0.00  0.00    +0.150 HD
BRANCH  82  88
ATOM     86  C   ARG A   5     -24.875 -42.192  -1.596  0.00  0.00    +0.244 C 
ATOM     87  N   PRO A   6     -23.895 -43.005  -1.170  0.00  0.00    -0.272 N 
ATOM     88  CA  PRO A   6     -24.203 -44.385  -0.780  0.00  0.00    +0.152 C 
ATOM     89  CB  PRO A   6     -22.820 -44.991  -0.481  0.00  0.00    +0.031 C 
ATOM     90  CG  PRO A   6     -21.818 -44.040  -1.107  0.00  0.00    +0.024 C 
ATOM     91  CD  PRO A   6     -22.462 -42.690  -1.027  0.00  0.00    +0.094 C 
ATOM     92  O   ARG A   5     -26.031 -42.575  -1.769  0.00  0.00    -0.273 OA
BRANCH  86  93
ATOM     93  CA  ARG A   5     -24.500 -40.745  -1.877  0.00  0.00    +0.149 C 
BRANCH  93  96
ATOM     94  C   GLU A   4     -23.370 -39.844  -3.822  0.00  0.00    +0.241 C 
ATOM     95  O   GLU A   4     -22.503 -39.318  -3.125  0.00  0.00    -0.273 OA
ATOM     96  N   ARG A   5     -24.385 -40.529  -3.310  0.00  0.00    -0.297 N 
ATOM     97  H   ARG A   5     -25.111 -40.918  -3.945  0.00  0.00    +0.150 HD
BRANCH  94  98
ATOM     98  CA  GLU A   4     -23.363 -39.681  -5.339  0.00  0.00    +0.149 C 
BRANCH  98 101
ATOM     99  C   LEU A   3     -23.148 -37.291  -5.420  0.00  0.00    +0.241 C 
ATOM    100  O   LEU A   3     -24.237 -37.171  -4.867  0.00  0.00    -0.273 OA
ATOM    101  N   GLU A   4     -22.637 -38.478  -5.727  0.00  0.00    -0.297 N 
ATOM    102  H   GLU A   4     -21.733 -38.548  -6.236  0.00  0.00    +0.150 HD
BRANCH  99 103
ATOM    103  CA  LEU A   3     -22.326 -36.065  -5.762  0.00  0.00    +0.149 C 
BRANCH 103 105
ATOM    104  C   ILE A   2     -23.299 -34.291  -7.128  0.00  0.00    +0.241 C 
ATOM    105  N   LEU A   3     -23.216 -34.931  -5.966  0.00  0.00    -0.297 N 
ATOM    106  H   LEU A   3     -23.808 -34.610  -5.174  0.00  0.00    +0.150 HD
ATOM    107  O   ILE A   2     -22.711 -34.657  -8.143  0.00  0.00    -0.273 OA
BRANCH 104 108
ATOM    108  CA  ILE A   2     -24.175 -33.042  -7.144  0.00  0.00    +0.148 C 
BRANCH 108 111
ATOM    109  C   LEU A   1     -22.937 -31.086  -6.418  0.00  0.00    +0.238 C 
ATOM    110  O   LEU A   1     -23.310 -31.225  -5.255  0.00  0.00    -0.274 OA
ATOM    111  N   ILE A   2     -23.337 -31.879  -7.406  0.00  0.00    -0.297 N 
ATOM    112  H   ILE A   2     -23.047 -31.666  -8.382  0.00  0.00    +0.150 HD
BRANCH 109 113
ATOM    113  CA  LEU A   1     -21.970 -29.971  -6.785  0.00  0.00    +0.145 C 
BRANCH 113 114
ATOM    114  N   LEU A   1     -22.444 -28.695  -6.254  0.00  0.00    -0.238 NA
ATOM    115  H   LEU A   1     -22.374 -28.510  -5.233  0.00  0.00    +0.142 HD
ENDBRANCH 113 114
BRANCH 113 116
ATOM    116  CB  LEU A   1     -20.588 -30.315  -6.225  0.00  0.00    +0.026 C 
BRANCH 116 117
ATOM    117  CG  LEU A   1     -19.518 -29.224  -6.126  0.00  0.00    +0.002 C 
ATOM    118  CD2 LEU A   1     -18.150 -29.838  -5.844  0.00  0.00    +0.000 C 
ATOM    119  CD1 LEU A   1     -19.471 -28.354  -7.367  0.00  0.00    +0.000 C 
ENDBRANCH 116 117
ENDBRANCH 113 116
ENDBRANCH 109 113
ENDBRANCH 108 111
BRANCH 108 120
ATOM    120  CB  ILE A   2     -25.286 -33.219  -8.204  0.00  0.00    +0.027 C 
ATOM    121  CG2 ILE A   2     -26.204 -34.377  -7.815  0.00  0.00    +0.002 C 
BRANCH 120 122
ATOM    122  CG1 ILE A   2     -26.069 -31.913  -8.399  0.00  0.00    +0.002 C 
ATOM    123  CD1 ILE A   2     -26.804 -31.432  -7.158  0.00  0.00    +0.000 C 
ENDBRANCH 120 122
ENDBRANCH 108 120
ENDBRANCH 104 108
ENDBRANCH 103 105
BRANCH 103 124
ATOM    124  CB  LEU A   3     -21.364 -35.764  -4.609  0.00  0.00    +0.029 C 
BRANCH 124 125
ATOM    125  CG  LEU A   3     -20.431 -34.564  -4.811  0.00  0.00    +0.002 C 
ATOM    126  CD2 LEU A   3     -20.073 -33.922  -3.481  0.00  0.00    +0.000 C 
ATOM    127  CD1 LEU A   3     -19.175 -34.994  -5.545  0.00  0.00    +0.000 C 
ENDBRANCH 124 125
ENDBRANCH 103 124
ENDBRANCH  99 103
ENDBRANCH  98 101
BRANCH  98 128
ATOM    128  CB  GLU A   4     -22.838 -40.931  -6.062  0.00  0.00    +0.041 C 
BRANCH 128 129
ATOM    129  CG  GLU A   4     -21.342 -41.022  -6.182  0.00  0.00    +0.116 C 
BRANCH 129 130
ATOM    130  CD  GLU A   4     -20.895 -42.258  -6.941  0.00  0.00    +0.365 C 
ATOM    131  OE2 GLU A   4     -19.718 -42.635  -6.809  0.00  0.00    -0.246 OA
ATOM    132  OE1 GLU A   4     -21.716 -42.857  -7.668  0.00  0.00    -0.246 OA
ENDBRANCH 129 130
ENDBRANCH 128 129
ENDBRANCH  98 128
ENDBRANCH  94  98
ENDBRANCH  93  96
BRANCH  93 133
ATOM    133  CB  ARG A   5     -25.551 -39.814  -1.261  0.00  0.00    +0.033 C 
BRANCH 133 134
ATOM    134  CG  ARG A   5     -25.851 -40.113   0.209  0.00  0.00    +0.045 C 
BRANCH 134 135
ATOM    135  CD  ARG A   5     -26.649 -39.000   0.882  0.00  0.00    +0.174 C 
BRANCH 135 136
ATOM    136  NE  ARG A   5     -27.972 -38.813   0.289  0.00  0.00    -0.265 N 
ATOM    137  CZ  ARG A   5     -29.051 -39.511   0.631  0.00  0.00    +0.342 C 
ATOM    138  NH2 ARG A   5     -28.967 -40.455   1.560  0.00  0.00    -0.292 N 
ATOM    139 HH21 ARG A   5     -28.056 -40.650   2.022  0.00  0.00    +0.255 HD
ATOM    140 HH22 ARG A   5     -29.812 -41.000   1.826  0.00  0.00    +0.255 HD
ATOM    141  NH1 ARG A   5     -30.214 -39.267   0.041  0.00  0.00    -0.292 N 
ATOM    142 HH11 ARG A   5     -31.058 -39.813   0.309  0.00  0.00    +0.255 HD
ATOM    143 HH12 ARG A   5     -30.282 -38.530  -0.689  0.00  0.00    +0.255 HD
ATOM    144  HE  ARG A   5     -28.076 -38.087  -0.448  0.00  0.00    +0.259 HD
ENDBRANCH 135 136
ENDBRANCH 134 135
ENDBRANCH 133 134
ENDBRANCH  93 133
ENDBRANCH  86  93
ENDBRANCH  82  88
ENDBRANCH  81  84
BRANCH  81 145
ATOM    145  CB  GLU A   7     -28.111 -44.904   1.546  0.00  0.00    +0.041 C 
BRANCH 145 146
ATOM    146  CG  GLU A   7     -29.171 -45.193   2.601  0.00  0.00    +0.116 C 
BRANCH 146 147
ATOM    147  CD  GLU A   7     -28.816 -44.640   3.971  0.00  0.00    +0.365 C 
ATOM    148  OE2 GLU A   7     -29.201 -45.267   4.982  0.00  0.00    -0.246 OA
ATOM    149  OE1 GLU A   7     -28.152 -43.583   4.041  0.00  0.00    -0.246 OA
ENDBRANCH 146 147
ENDBRANCH 145 146
ENDBRANCH  81 145
ENDBRANCH   1  81
TORSDOF 58
REMARK  Name = ../refined-set-2016/4k18/4k18_pocket.pdb
REMARK  213 active torsions:
REMARK  status: ('A' for Active; 'I' for Inactive)
REMARK    1  A    between atoms: _1  and  _3
REMARK    2  A    between atoms: _3  and  _4
REMARK    3  A    between atoms: _3  and  _6
REMARK    4  A    between atoms: _6  and  _7
REMARK    5  A    between atoms: _10  and  _12
REMARK    6  A    between atoms: _12  and  _13
REMARK    7  A    between atoms: _12  and  _15
REMARK    8  A    between atoms: _15  and  _16
REMARK    9  A    between atoms: _19  and  _21
REMARK   10  A    between atoms: _21  and  _22
REMARK   11  A    between atoms: _24  and  _26
REMARK   12  A    between atoms: _26  and  _27
REMARK   13  A    between atoms: _26  and  _29
REMARK   14  A    between atoms: _29  and  _30
REMARK   15  A    between atoms: _32  and  _34
REMARK   16  A    between atoms: _34  and  _35
REMARK   17  A    between atoms: _37  and  _39
REMARK   18  A    between atoms: _39  and  _40
REMARK   19  A    between atoms: _42  and  _44
REMARK   20  A    between atoms: _44  and  _45
REMARK   21  A    between atoms: _44  and  _47
REMARK   22  A    between atoms: _47  and  _48
REMARK   23  A    between atoms: _54  and  _56
REMARK   24  A    between atoms: _56  and  _57
REMARK   25  A    between atoms: _59  and  _61
REMARK   26  A    between atoms: _61  and  _62
REMARK   27  A    between atoms: _61  and  _64
REMARK   28  A    between atoms: _64  and  _65
REMARK   29  A    between atoms: _67  and  _69
REMARK   30  A    between atoms: _69  and  _70
REMARK   31  A    between atoms: _69  and  _72
REMARK   32  A    between atoms: _75  and  _77
REMARK   33  A    between atoms: _77  and  _78
REMARK   34  A    between atoms: _77  and  _80
REMARK   35  A    between atoms: _80  and  _81
REMARK   36  A    between atoms: _86  and  _87
REMARK   37  A    between atoms: _89  and  _91
REMARK   38  A    between atoms: _91  and  _92
REMARK   39  A    between atoms: _91  and  _94
REMARK   40  A    between atoms: _94  and  _95
REMARK   41  A    between atoms: _97  and  _99
REMARK   42  A    between atoms: _99  and  _100
REMARK   43  A    between atoms: _103  and  _104
REMARK   44  A    between atoms: _109  and  _111
REMARK   45  A    between atoms: _111  and  _112
REMARK   46  A    between atoms: _111  and  _114
REMARK   47  A    between atoms: _117  and  _119
REMARK   48  A    between atoms: _119  and  _120
REMARK   49  A    between atoms: _123  and  _125
REMARK   50  A    between atoms: _125  and  _126
REMARK   51  A    between atoms: _125  and  _128
REMARK   52  A    between atoms: _128  and  _129
REMARK   53  A    between atoms: _132  and  _134
REMARK   54  A    between atoms: _134  and  _135
REMARK   55  A    between atoms: _134  and  _137
REMARK   56  A    between atoms: _137  and  _138
REMARK   57  A    between atoms: _138  and  _139
REMARK   58  A    between atoms: _139  and  _140
REMARK   59  A    between atoms: _140  and  _141
REMARK   60  A    between atoms: _145  and  _147
REMARK   61  A    between atoms: _147  and  _148
REMARK   62  A    between atoms: _147  and  _150
REMARK   63  A    between atoms: _150  and  _151
REMARK   64  A    between atoms: _156  and  _158
REMARK   65  A    between atoms: _158  and  _159
REMARK   66  A    between atoms: _158  and  _161
REMARK   67  A    between atoms: _164  and  _166
REMARK   68  A    between atoms: _166  and  _167
REMARK   69  A    between atoms: _166  and  _169
REMARK   70  A    between atoms: _169  and  _170
REMARK   71  A    between atoms: _170  and  _171
REMARK   72  A    between atoms: _174  and  _176
REMARK   73  A    between atoms: _176  and  _177
REMARK   74  A    between atoms: _176  and  _179
REMARK   75  A    between atoms: _179  and  _180
REMARK   76  A    between atoms: _183  and  _185
REMARK   77  A    between atoms: _185  and  _186
REMARK   78  A    between atoms: _185  and  _188
REMARK   79  A    between atoms: _188  and  _189
REMARK   80  A    between atoms: _192  and  _194
REMARK   81  A    between atoms: _194  and  _195
REMARK   82  A    between atoms: _194  and  _197
REMARK   83  A    between atoms: _197  and  _198
REMARK   84  A    between atoms: _198  and  _199
REMARK   85  A    between atoms: _199  and  _200
REMARK   86  A    between atoms: _209  and  _211
REMARK   87  A    between atoms: _211  and  _212
REMARK   88  A    between atoms: _211  and  _214
REMARK   89  A    between atoms: _214  and  _215
REMARK   90  A    between atoms: _218  and  _220
REMARK   91  A    between atoms: _220  and  _221
REMARK   92  A    between atoms: _220  and  _223
REMARK   93  A    between atoms: _223  and  _224
REMARK   94  A    between atoms: _227  and  _229
REMARK   95  A    between atoms: _229  and  _230
REMARK   96  A    between atoms: _229  and  _232
REMARK   97  A    between atoms: _232  and  _233
REMARK   98  A    between atoms: _236  and  _238
REMARK   99  A    between atoms: _238  and  _239
REMARK  100  A    between atoms: _238  and  _241
REMARK  101  A    between atoms: _241  and  _242
REMARK  102  A    between atoms: _245  and  _247
REMARK  103  A    between atoms: _247  and  _248
REMARK  104  A    between atoms: _247  and  _250
REMARK  105  A    between atoms: _250  and  _251
REMARK  106  A    between atoms: _251  and  _252
REMARK  107  A    between atoms: _255  and  _257
REMARK  108  A    between atoms: _257  and  _258
REMARK  109  A    between atoms: _257  and  _260
REMARK  110  A    between atoms: _260  and  _261
REMARK  111  A    between atoms: _261  and  _262
REMARK  112  A    between atoms: _262  and  _263
REMARK  113  A    between atoms: _273  and  _274
REMARK  114  A    between atoms: _279  and  _281
REMARK  115  A    between atoms: _281  and  _282
REMARK  116  A    between atoms: _281  and  _284
REMARK  117  A    between atoms: _284  and  _285
REMARK  118  A    between atoms: _285  and  _286
REMARK  119  A    between atoms: _290  and  _291
REMARK  120  A    between atoms: _296  and  _298
REMARK  121  A    between atoms: _298  and  _299
REMARK  122  A    between atoms: _298  and  _301
REMARK  123  A    between atoms: _304  and  _306
REMARK  124  A    between atoms: _306  and  _307
REMARK  125  A    between atoms: _306  and  _309
REMARK  126  A    between atoms: _309  and  _310
REMARK  127  A    between atoms: _310  and  _311
REMARK  128  A    between atoms: _316  and  _318
REMARK  129  A    between atoms: _318  and  _319
REMARK  130  A    between atoms: _318  and  _321
REMARK  131  A    between atoms: _321  and  _322
REMARK  132  A    between atoms: _325  and  _327
REMARK  133  A    between atoms: _327  and  _328
REMARK  134  A    between atoms: _327  and  _330
REMARK  135  A    between atoms: _330  and  _331
REMARK  136  A    between atoms: _334  and  _336
REMARK  137  A    between atoms: _336  and  _337
REMARK  138  A    between atoms: _336  and  _339
REMARK  139  A    between atoms: _339  and  _340
REMARK  140  A    between atoms: _346  and  _348
REMARK  141  A    between atoms: _348  and  _349
REMARK  142  A    between atoms: _348  and  _351
REMARK  143  A    between atoms: _351  and  _352
REMARK  144  A    between atoms: _355  and  _357
REMARK  145  A    between atoms: _357  and  _358
REMARK  146  A    between atoms: _357  and  _360
REMARK  147  A    between atoms: _360  and  _361
REMARK  148  A    between atoms: _367  and  _369
REMARK  149  A    between atoms: _369  and  _370
REMARK  150  A    between atoms: _369  and  _372
REMARK  151  A    between atoms: _372  and  _373
REMARK  152  A    between atoms: _376  and  _378
REMARK  153  A    between atoms: _378  and  _379
REMARK  154  A    between atoms: _378  and  _381
REMARK  155  A    between atoms: _381  and  _382
REMARK  156  A    between atoms: _385  and  _387
REMARK  157  A    between atoms: _387  and  _388
REMARK  158  A    between atoms: _387  and  _390
REMARK  159  A    between atoms: _390  and  _391
REMARK  160  A    between atoms: _391  and  _392
REMARK  161  A    between atoms: _395  and  _397
REMARK  162  A    between atoms: _397  and  _398
REMARK  163  A    between atoms: _397  and  _400
REMARK  164  A    between atoms: _400  and  _401
REMARK  165  A    between atoms: _406  and  _408
REMARK  166  A    between atoms: _408  and  _409
REMARK  167  A    between atoms: _408  and  _411
REMARK  168  A    between atoms: _411  and  _412
REMARK  169  A    between atoms: _415  and  _417
REMARK  170  A    between atoms: _417  and  _418
REMARK  171  A    between atoms: _417  and  _420
REMARK  172  A    between atoms: _420  and  _421
REMARK  173  A    between atoms: _424  and  _426
REMARK  174  A    between atoms: _426  and  _427
REMARK  175  A    between atoms: _426  and  _429
REMARK  176  A    between atoms: _429  and  _430
REMARK  177  A    between atoms: _433  and  _435
REMARK  178  A    between atoms: _435  and  _436
REMARK  179  A    between atoms: _435  and  _438
REMARK  180  A    between atoms: _438  and  _439
REMARK  181  A    between atoms: _442  and  _444
REMARK  182  A    between atoms: _444  and  _445
REMARK  183  A    between atoms: _444  and  _447
REMARK  184  A    between atoms: _447  and  _448
REMARK  185  A    between atoms: _451  and  _453
REMARK  186  A    between atoms: _453  and  _454
REMARK  187  A    between atoms: _453  and  _456
REMARK  188  A    between atoms: _456  and  _457
REMARK  189  A    between atoms: _457  and  _458
REMARK  190  A    between atoms: _458  and  _459
REMARK  191  A    between atoms: _459  and  _460
REMARK  192  A    between atoms: _464  and  _466
REMARK  193  A    between atoms: _466  and  _467
REMARK  194  A    between atoms: _466  and  _469
REMARK  195  A    between atoms: _469  and  _470
REMARK  196  A    between atoms: _473  and  _475
REMARK  197  A    between atoms: _475  and  _476
REMARK  198  A    between atoms: _475  and  _478
REMARK  199  A    between atoms: _478  and  _479
REMARK  200  A    between atoms: _482  and  _484
REMARK  201  A    between atoms: _484  and  _485
REMARK  202  A    between atoms: _484  and  _487
REMARK  203  A    between atoms: _487  and  _488
REMARK  204  A    between atoms: _491  and  _493
REMARK  205  A    between atoms: _493  and  _494
REMARK  206  A    between atoms: _493  and  _496
REMARK  207  A    between atoms: _496  and  _497
REMARK  208  A    between atoms: _503  and  _505
REMARK  209  A    between atoms: _505  and  _506
REMARK  210  A    between atoms: _508  and  _510
REMARK  211  A    between atoms: _510  and  _511
REMARK  212  A    between atoms: _510  and  _513
REMARK  213  A    between atoms: _513  and  _514
REMARK                            x       y       z     vdW  Elec       q    Type
REMARK                         _______ _______ _______ _____ _____    ______ ____
ROOT
ATOM      1  CA  ASP A   1      -5.684 -34.413   1.793  0.00  0.00    +0.144 C 
ENDROOT
BRANCH   1   2
ATOM      2  N   ASP A   1      -5.075 -34.438   0.468  0.00  0.00    -0.239 NA
ATOM      3  H   ASP A   1      -5.462 -35.065  -0.266  0.00  0.00    +0.142 HD
ENDBRANCH   1   2
BRANCH   1   4
ATOM      4  C   ASP A   1      -6.226 -35.786   2.174  0.00  0.00    +0.225 C 
ATOM      5  O   ASP A   1      -7.316 -35.902   2.736  0.00  0.00    -0.287 OA
ENDBRANCH   1   4
BRANCH   1   6
ATOM      6  CB  ASP A   1      -6.792 -33.350   1.863  0.00  0.00    +0.139 C 
BRANCH   6   7
ATOM      7  CG  ASP A   1      -7.146 -32.964   3.293  0.00  0.00    +0.367 C 
ATOM      8  OD2 ASP A   1      -6.303 -33.169   4.195  0.00  0.00    -0.246 OA
ATOM      9  OD1 ASP A   1      -8.266 -32.452   3.514  0.00  0.00    -0.246 OA
ENDBRANCH   6   7
ENDBRANCH   1   6
TORSDOF 4
REMARK  Name = ../refined-set-2016/4k18/4k18_pocket.pdb
REMARK  213 active torsions:
REMARK  status: ('A' for Active; 'I' for Inactive)
REMARK    1  A    between atoms: _1  and  _3
REMARK    2  A    between atoms: _3  and  _4
REMARK    3  A    between atoms: _3  and  _6
REMARK    4  A    between atoms: _6  and  _7
REMARK    5  A    between atoms: _10  and  _12
REMARK    6  A    between atoms: _12  and  _13
REMARK    7  A    between atoms: _12  and  _15
REMARK    8  A    between atoms: _15  and  _16
REMARK    9  A    between atoms: _19  and  _21
REMARK   10  A    between atoms: _21  and  _22
REMARK   11  A    between atoms: _24  and  _26
REMARK   12  A    between atoms: _26  and  _27
REMARK   13  A    between atoms: _26  and  _29
REMARK   14  A    between atoms: _29  and  _30
REMARK   15  A    between atoms: _32  and  _34
REMARK   16  A    between atoms: _34  and  _35
REMARK   17  A    between atoms: _37  and  _39
REMARK   18  A    between atoms: _39  and  _40
REMARK   19  A    between atoms: _42  and  _44
REMARK   20  A    between atoms: _44  and  _45
REMARK   21  A    between atoms: _44  and  _47
REMARK   22  A    between atoms: _47  and  _48
REMARK   23  A    between atoms: _54  and  _56
REMARK   24  A    between atoms: _56  and  _57
REMARK   25  A    between atoms: _59  and  _61
REMARK   26  A    between atoms: _61  and  _62
REMARK   27  A    between atoms: _61  and  _64
REMARK   28  A    between atoms: _64  and  _65
REMARK   29  A    between atoms: _67  and  _69
REMARK   30  A    between atoms: _69  and  _70
REMARK   31  A    between atoms: _69  and  _72
REMARK   32  A    between atoms: _75  and  _77
REMARK   33  A    between atoms: _77  and  _78
REMARK   34  A    between atoms: _77  and  _80
REMARK   35  A    between atoms: _80  and  _81
REMARK   36  A    between atoms: _86  and  _87
REMARK   37  A    between atoms: _89  and  _91
REMARK   38  A    between atoms: _91  and  _92
REMARK   39  A    between atoms: _91  and  _94
REMARK   40  A    between atoms: _94  and  _95
REMARK   41  A    between atoms: _97  and  _99
REMARK   42  A    between atoms: _99  and  _100
REMARK   43  A    between atoms: _103  and  _104
REMARK   44  A    between atoms: _109  and  _111
REMARK   45  A    between atoms: _111  and  _112
REMARK   46  A    between atoms: _111  and  _114
REMARK   47  A    between atoms: _117  and  _119
REMARK   48  A    between atoms: _119  and  _120
REMARK   49  A    between atoms: _123  and  _125
REMARK   50  A    between atoms: _125  and  _126
REMARK   51  A    between atoms: _125  and  _128
REMARK   52  A    between atoms: _128  and  _129
REMARK   53  A    between atoms: _132  and  _134
REMARK   54  A    between atoms: _134  and  _135
REMARK   55  A    between atoms: _134  and  _137
REMARK   56  A    between atoms: _137  and  _138
REMARK   57  A    between atoms: _138  and  _139
REMARK   58  A    between atoms: _139  and  _140
REMARK   59  A    between atoms: _140  and  _141
REMARK   60  A    between atoms: _145  and  _147
REMARK   61  A    between atoms: _147  and  _148
REMARK   62  A    between atoms: _147  and  _150
REMARK   63  A    between atoms: _150  and  _151
REMARK   64  A    between atoms: _156  and  _158
REMARK   65  A    between atoms: _158  and  _159
REMARK   66  A    between atoms: _158  and  _161
REMARK   67  A    between atoms: _164  and  _166
REMARK   68  A    between atoms: _166  and  _167
REMARK   69  A    between atoms: _166  and  _169
REMARK   70  A    between atoms: _169  and  _170
REMARK   71  A    between atoms: _170  and  _171
REMARK   72  A    between atoms: _174  and  _176
REMARK   73  A    between atoms: _176  and  _177
REMARK   74  A    between atoms: _176  and  _179
REMARK   75  A    between atoms: _179  and  _180
REMARK   76  A    between atoms: _183  and  _185
REMARK   77  A    between atoms: _185  and  _186
REMARK   78  A    between atoms: _185  and  _188
REMARK   79  A    between atoms: _188  and  _189
REMARK   80  A    between atoms: _192  and  _194
REMARK   81  A    between atoms: _194  and  _195
REMARK   82  A    between atoms: _194  and  _197
REMARK   83  A    between atoms: _197  and  _198
REMARK   84  A    between atoms: _198  and  _199
REMARK   85  A    between atoms: _199  and  _200
REMARK   86  A    between atoms: _209  and  _211
REMARK   87  A    between atoms: _211  and  _212
REMARK   88  A    between atoms: _211  and  _214
REMARK   89  A    between atoms: _214  and  _215
REMARK   90  A    between atoms: _218  and  _220
REMARK   91  A    between atoms: _220  and  _221
REMARK   92  A    between atoms: _220  and  _223
REMARK   93  A    between atoms: _223  and  _224
REMARK   94  A    between atoms: _227  and  _229
REMARK   95  A    between atoms: _229  and  _230
REMARK   96  A    between atoms: _229  and  _232
REMARK   97  A    between atoms: _232  and  _233
REMARK   98  A    between atoms: _236  and  _238
REMARK   99  A    between atoms: _238  and  _239
REMARK  100  A    between atoms: _238  and  _241
REMARK  101  A    between atoms: _241  and  _242
REMARK  102  A    between atoms: _245  and  _247
REMARK  103  A    between atoms: _247  and  _248
REMARK  104  A    between atoms: _247  and  _250
REMARK  105  A    between atoms: _250  and  _251
REMARK  106  A    between atoms: _251  and  _252
REMARK  107  A    between atoms: _255  and  _257
REMARK  108  A    between atoms: _257  and  _258
REMARK  109  A    between atoms: _257  and  _260
REMARK  110  A    between atoms: _260  and  _261
REMARK  111  A    between atoms: _261  and  _262
REMARK  112  A    between atoms: _262  and  _263
REMARK  113  A    between atoms: _273  and  _274
REMARK  114  A    between atoms: _279  and  _281
REMARK  115  A    between atoms: _281  and  _282
REMARK  116  A    between atoms: _281  and  _284
REMARK  117  A    between atoms: _284  and  _285
REMARK  118  A    between atoms: _285  and  _286
REMARK  119  A    between atoms: _290  and  _291
REMARK  120  A    between atoms: _296  and  _298
REMARK  121  A    between atoms: _298  and  _299
REMARK  122  A    between atoms: _298  and  _301
REMARK  123  A    between atoms: _304  and  _306
REMARK  124  A    between atoms: _306  and  _307
REMARK  125  A    between atoms: _306  and  _309
REMARK  126  A    between atoms: _309  and  _310
REMARK  127  A    between atoms: _310  and  _311
REMARK  128  A    between atoms: _316  and  _318
REMARK  129  A    between atoms: _318  and  _319
REMARK  130  A    between atoms: _318  and  _321
REMARK  131  A    between atoms: _321  and  _322
REMARK  132  A    between atoms: _325  and  _327
REMARK  133  A    between atoms: _327  and  _328
REMARK  134  A    between atoms: _327  and  _330
REMARK  135  A    between atoms: _330  and  _331
REMARK  136  A    between atoms: _334  and  _336
REMARK  137  A    between atoms: _336  and  _337
REMARK  138  A    between atoms: _336  and  _339
REMARK  139  A    between atoms: _339  and  _340
REMARK  140  A    between atoms: _346  and  _348
REMARK  141  A    between atoms: _348  and  _349
REMARK  142  A    between atoms: _348  and  _351
REMARK  143  A    between atoms: _351  and  _352
REMARK  144  A    between atoms: _355  and  _357
REMARK  145  A    between atoms: _357  and  _358
REMARK  146  A    between atoms: _357  and  _360
REMARK  147  A    between atoms: _360  and  _361
REMARK  148  A    between atoms: _367  and  _369
REMARK  149  A    between atoms: _369  and  _370
REMARK  150  A    between atoms: _369  and  _372
REMARK  151  A    between atoms: _372  and  _373
REMARK  152  A    between atoms: _376  and  _378
REMARK  153  A    between atoms: _378  and  _379
REMARK  154  A    between atoms: _378  and  _381
REMARK  155  A    between atoms: _381  and  _382
REMARK  156  A    between atoms: _385  and  _387
REMARK  157  A    between atoms: _387  and  _388
REMARK  158  A    between atoms: _387  and  _390
REMARK  159  A    between atoms: _390  and  _391
REMARK  160  A    between atoms: _391  and  _392
REMARK  161  A    between atoms: _395  and  _397
REMARK  162  A    between atoms: _397  and  _398
REMARK  163  A    between atoms: _397  and  _400
REMARK  164  A    between atoms: _400  and  _401
REMARK  165  A    between atoms: _406  and  _408
REMARK  166  A    between atoms: _408  and  _409
REMARK  167  A    between atoms: _408  and  _411
REMARK  168  A    between atoms: _411  and  _412
REMARK  169  A    between atoms: _415  and  _417
REMARK  170  A    between atoms: _417  and  _418
REMARK  171  A    between atoms: _417  and  _420
REMARK  172  A    between atoms: _420  and  _421
REMARK  173  A    between atoms: _424  and  _426
REMARK  174  A    between atoms: _426  and  _427
REMARK  175  A    between atoms: _426  and  _429
REMARK  176  A    between atoms: _429  and  _430
REMARK  177  A    between atoms: _433  and  _435
REMARK  178  A    between atoms: _435  and  _436
REMARK  179  A    between atoms: _435  and  _438
REMARK  180  A    between atoms: _438  and  _439
REMARK  181  A    between atoms: _442  and  _444
REMARK  182  A    between atoms: _444  and  _445
REMARK  183  A    between atoms: _444  and  _447
REMARK  184  A    between atoms: _447  and  _448
REMARK  185  A    between atoms: _451  and  _453
REMARK  186  A    between atoms: _453  and  _454
REMARK  187  A    between atoms: _453  and  _456
REMARK  188  A    between atoms: _456  and  _457
REMARK  189  A    between atoms: _457  and  _458
REMARK  190  A    between atoms: _458  and  _459
REMARK  191  A    between atoms: _459  and  _460
REMARK  192  A    between atoms: _464  and  _466
REMARK  193  A    between atoms: _466  and  _467
REMARK  194  A    between atoms: _466  and  _469
REMARK  195  A    between atoms: _469  and  _470
REMARK  196  A    between atoms: _473  and  _475
REMARK  197  A    between atoms: _475  and  _476
REMARK  198  A    between atoms: _475  and  _478
REMARK  199  A    between atoms: _478  and  _479
REMARK  200  A    between atoms: _482  and  _484
REMARK  201  A    between atoms: _484  and  _485
REMARK  202  A    between atoms: _484  and  _487
REMARK  203  A    between atoms: _487  and  _488
REMARK  204  A    between atoms: _491  and  _493
REMARK  205  A    between atoms: _493  and  _494
REMARK  206  A    between atoms: _493  and  _496
REMARK  207  A    between atoms: _496  and  _497
REMARK  208  A    between atoms: _503  and  _505
REMARK  209  A    between atoms: _505  and  _506
REMARK  210  A    between atoms: _508  and  _510
REMARK  211  A    between atoms: _510  and  _511
REMARK  212  A    between atoms: _510  and  _513
REMARK  213  A    between atoms: _513  and  _514
REMARK                            x       y       z     vdW  Elec       q    Type
REMARK                         _______ _______ _______ _____ _____    ______ ____
ROOT
ATOM      1  C   ILE A   4     -14.210 -42.073   3.615  0.00  0.00    +0.241 C 
ATOM      2  O   ILE A   4     -14.451 -42.083   4.820  0.00  0.00    -0.273 OA
ATOM      3  N   LEU A   5     -15.088 -42.473   2.696  0.00  0.00    -0.297 N 
ATOM      4  H   LEU A   5     -14.837 -42.409   1.689  0.00  0.00    +0.150 HD
ENDROOT
BRANCH   1   5
ATOM      5  CA  ILE A   4     -12.859 -41.584   3.120  0.00  0.00    +0.149 C 
BRANCH   5   7
ATOM      6  C   ASN A   3     -12.248 -39.240   2.860  0.00  0.00    +0.241 C 
ATOM      7  N   ILE A   4     -12.608 -40.251   3.641  0.00  0.00    -0.297 N 
ATOM      8  H   ILE A   4     -12.714 -40.083   4.662  0.00  0.00    +0.150 HD
ATOM      9  O   ASN A   3     -12.119 -39.345   1.642  0.00  0.00    -0.273 OA
BRANCH   6  10
ATOM     10  CA  ASN A   3     -12.032 -37.906   3.562  0.00  0.00    +0.158 C 
BRANCH  10  13
ATOM     11  C   GLU A   2     -12.724 -37.748   5.889  0.00  0.00    +0.241 C 
ATOM     12  O   GLU A   2     -13.864 -37.420   5.568  0.00  0.00    -0.273 OA
ATOM     13  N   ASN A   3     -11.777 -38.018   4.996  0.00  0.00    -0.297 N 
ATOM     14  H   ASN A   3     -10.836 -38.315   5.325  0.00  0.00    +0.150 HD
BRANCH  11  15
ATOM     15  CA  GLU A   2     -12.333 -37.863   7.360  0.00  0.00    +0.149 C 
BRANCH  15  17
ATOM     16  C   ASP A   1     -11.198 -40.021   7.280  0.00  0.00    +0.239 C 
ATOM     17  N   GLU A   2     -11.163 -38.721   7.568  0.00  0.00    -0.297 N 
ATOM     18  H   GLU A   2     -10.288 -38.307   7.948  0.00  0.00    +0.150 HD
ATOM     19  O   ASP A   1     -12.198 -40.566   6.818  0.00  0.00    -0.274 OA
BRANCH  16  20
ATOM     20  CA  ASP A   1      -9.910 -40.830   7.515  0.00  0.00    +0.156 C 
BRANCH  20  21
ATOM     21  N   ASP A   1      -8.678 -40.112   7.183  0.00  0.00    -0.238 NA
ATOM     22  H   ASP A   1      -7.937 -40.015   7.906  0.00  0.00    +0.142 HD
ENDBRANCH  20  21
BRANCH  20  23
ATOM     23  CB  ASP A   1      -9.853 -41.392   8.946  0.00  0.00    +0.140 C 
BRANCH  23  24
ATOM     24  CG  ASP A   1      -9.466 -40.345   9.982  0.00  0.00    +0.367 C 
ATOM     25  OD2 ASP A   1      -9.255 -40.732  11.151  0.00  0.00    -0.246 OA
ATOM     26  OD1 ASP A   1      -9.386 -39.142   9.641  0.00  0.00    -0.246 OA
ENDBRANCH  23  24
ENDBRANCH  20  23
ENDBRANCH  16  20
ENDBRANCH  15  17
BRANCH  15  27
ATOM     27  CB  GLU A   2     -12.093 -36.461   7.928  0.00  0.00    +0.041 C 
BRANCH  27  28
ATOM     28  CG  GLU A   2     -11.747 -36.425   9.399  0.00  0.00    +0.116 C 
BRANCH  28  29
ATOM     29  CD  GLU A   2     -11.357 -35.032   9.859  0.00  0.00    +0.365 C 
ATOM     30  OE2 GLU A   2     -10.287 -34.888  10.486  0.00  0.00    -0.246 OA
ATOM     31  OE1 GLU A   2     -12.113 -34.079   9.578  0.00  0.00    -0.246 OA
ENDBRANCH  28  29
ENDBRANCH  27  28
ENDBRANCH  15  27
ENDBRANCH  11  15
ENDBRANCH  10  13
BRANCH  10  32
ATOM     32  CB  ASN A   3     -10.927 -37.088   2.883  0.00  0.00    +0.114 C 
BRANCH  32  33
ATOM     33  CG  ASN A   3     -11.015 -35.621   3.227  0.00  0.00    +0.222 C 
ATOM     34  OD1 ASN A   3     -12.099 -35.118   3.527  0.00  0.00    -0.275 OA
ATOM     35  ND2 ASN A   3      -9.881 -34.926   3.198  0.00  0.00    -0.329 N 
ATOM     36 HD21 ASN A   3      -9.886 -33.913   3.435  0.00  0.00    +0.145 HD
ATOM     37 HD22 ASN A   3      -8.990 -35.395   2.938  0.00  0.00    +0.145 HD
ENDBRANCH  32  33
ENDBRANCH  10  32
ENDBRANCH   6  10
ENDBRANCH   5   7
BRANCH   5  38
ATOM     38  CB  ILE A   4     -11.781 -42.559   3.618  0.00  0.00    +0.027 C 
ATOM     39  CG2 ILE A   4     -12.137 -43.986   3.273  0.00  0.00    +0.002 C 
BRANCH  38  40
ATOM     40  CG1 ILE A   4     -10.419 -42.200   3.018  0.00  0.00    +0.002 C 
ATOM     41  CD1 ILE A   4      -9.256 -42.884   3.712  0.00  0.00    +0.000 C 
ENDBRANCH  38  40
ENDBRANCH   5  38
ENDBRANCH   1   5
BRANCH   3  42
ATOM     42  CA  LEU A   5     -16.397 -43.000   3.075  0.00  0.00    +0.149 C 
BRANCH  42  43
ATOM     43  C   LEU A   5     -16.434 -44.503   2.929  0.00  0.00    +0.241 C 
ATOM     44  N   ILE A   6     -17.225 -45.147   3.775  0.00  0.00    -0.297 N 
ATOM     45  H   ILE A   6     -17.707 -44.614   4.527  0.00  0.00    +0.150 HD
ATOM     46  O   LEU A   5     -15.781 -45.066   2.056  0.00  0.00    -0.273 OA
BRANCH  44  47
ATOM     47  CA  ILE A   6     -17.434 -46.582   3.676  0.00  0.00    +0.149 C 
BRANCH  47  48
ATOM     48  C   ILE A   6     -18.855 -46.863   3.207  0.00  0.00    +0.241 C 
ATOM     49  O   ILE A   6     -19.819 -46.461   3.862  0.00  0.00    -0.273 OA
ATOM     50  N   ASP A   7     -18.968 -47.526   2.058  0.00  0.00    -0.297 N 
ATOM     51  H   ASP A   7     -18.119 -47.647   1.469  0.00  0.00    +0.150 HD
BRANCH  50  52
ATOM     52  CA  ASP A   7     -20.226 -48.089   1.588  0.00  0.00    +0.160 C 
BRANCH  52  53
ATOM     53  C   ASP A   7     -20.386 -49.385   2.361  0.00  0.00    +0.241 C 
ATOM     54  N   LEU A   8     -21.158 -49.326   3.439  0.00  0.00    -0.298 N 
ATOM     55  H   LEU A   8     -21.721 -48.467   3.605  0.00  0.00    +0.150 HD
ATOM     56  O   ASP A   7     -19.813 -50.407   1.993  0.00  0.00    -0.273 OA
BRANCH  54  57
ATOM     57  CA  LEU A   8     -21.247 -50.422   4.401  0.00  0.00    +0.137 C 
BRANCH  57  58
ATOM     58  C   LEU A   8     -21.798 -51.724   3.824  0.00  0.00    +0.227 C 
ATOM     59  O   LEU A   8     -21.324 -52.807   4.166  0.00  0.00    -0.286 OA
ENDBRANCH  57  58
BRANCH  57  60
ATOM     60  CB  LEU A   8     -22.062 -49.983   5.619  0.00  0.00    +0.028 C 
BRANCH  60  61
ATOM     61  CG  LEU A   8     -21.423 -48.836   6.401  0.00  0.00    +0.002 C 
ATOM     62  CD2 LEU A   8     -22.433 -48.135   7.308  0.00  0.00    +0.000 C 
ATOM     63  CD1 LEU A   8     -20.227 -49.345   7.204  0.00  0.00    +0.000 C 
ENDBRANCH  60  61
ENDBRANCH  57  60
ENDBRANCH  54  57
ENDBRANCH  52  53
BRANCH  52  64
ATOM     64  CB  ASP A   7     -20.154 -48.363   0.081  0.00  0.00    +0.143 C 
BRANCH  64  65
ATOM     65  CG  ASP A   7     -21.467 -48.895  -0.499  0.00  0.00    +0.367 C 
ATOM     66  OD2 ASP A   7     -22.277 -49.485   0.246  0.00  0.00    -0.246 OA
ATOM     67  OD1 ASP A   7     -21.679 -48.733  -1.719  0.00  0.00    -0.246 OA
ENDBRANCH  64  65
ENDBRANCH  52  64
ENDBRANCH  50  52
ENDBRANCH  47  48
BRANCH  47  68
ATOM     68  CB  ILE A   6     -17.203 -47.286   5.030  0.00  0.00    +0.027 C 
ATOM     69  CG2 ILE A   6     -17.344 -48.798   4.885  0.00  0.00    +0.002 C 
BRANCH  68  70
ATOM     70  CG1 ILE A   6     -15.824 -46.930   5.593  0.00  0.00    +0.002 C 
ATOM     71  CD1 ILE A   6     -15.645 -47.348   7.028  0.00  0.00    +0.000 C 
ENDBRANCH  68  70
ENDBRANCH  47  68
ENDBRANCH  44  47
ENDBRANCH  42  43
BRANCH  42  72
ATOM     72  CB  LEU A   5     -17.501 -42.416   2.201  0.00  0.00    +0.029 C 
BRANCH  72  73
ATOM     73  CG  LEU A   5     -17.632 -40.901   2.134  0.00  0.00    +0.002 C 
ATOM     74  CD2 LEU A   5     -17.752 -40.324   3.532  0.00  0.00    +0.000 C 
ATOM     75  CD1 LEU A   5     -18.848 -40.550   1.292  0.00  0.00    +0.000 C 
ENDBRANCH  72  73
ENDBRANCH  42  72
ENDBRANCH   3  42
TORSDOF 33
REMARK  Name = ../refined-set-2016/4k18/4k18_pocket.pdb
REMARK  213 active torsions:
REMARK  status: ('A' for Active; 'I' for Inactive)
REMARK    1  A    between atoms: _1  and  _3
REMARK    2  A    between atoms: _3  and  _4
REMARK    3  A    between atoms: _3  and  _6
REMARK    4  A    between atoms: _6  and  _7
REMARK    5  A    between atoms: _10  and  _12
REMARK    6  A    between atoms: _12  and  _13
REMARK    7  A    between atoms: _12  and  _15
REMARK    8  A    between atoms: _15  and  _16
REMARK    9  A    between atoms: _19  and  _21
REMARK   10  A    between atoms: _21  and  _22
REMARK   11  A    between atoms: _24  and  _26
REMARK   12  A    between atoms: _26  and  _27
REMARK   13  A    between atoms: _26  and  _29
REMARK   14  A    between atoms: _29  and  _30
REMARK   15  A    between atoms: _32  and  _34
REMARK   16  A    between atoms: _34  and  _35
REMARK   17  A    between atoms: _37  and  _39
REMARK   18  A    between atoms: _39  and  _40
REMARK   19  A    between atoms: _42  and  _44
REMARK   20  A    between atoms: _44  and  _45
REMARK   21  A    between atoms: _44  and  _47
REMARK   22  A    between atoms: _47  and  _48
REMARK   23  A    between atoms: _54  and  _56
REMARK   24  A    between atoms: _56  and  _57
REMARK   25  A    between atoms: _59  and  _61
REMARK   26  A    between atoms: _61  and  _62
REMARK   27  A    between atoms: _61  and  _64
REMARK   28  A    between atoms: _64  and  _65
REMARK   29  A    between atoms: _67  and  _69
REMARK   30  A    between atoms: _69  and  _70
REMARK   31  A    between atoms: _69  and  _72
REMARK   32  A    between atoms: _75  and  _77
REMARK   33  A    between atoms: _77  and  _78
REMARK   34  A    between atoms: _77  and  _80
REMARK   35  A    between atoms: _80  and  _81
REMARK   36  A    between atoms: _86  and  _87
REMARK   37  A    between atoms: _89  and  _91
REMARK   38  A    between atoms: _91  and  _92
REMARK   39  A    between atoms: _91  and  _94
REMARK   40  A    between atoms: _94  and  _95
REMARK   41  A    between atoms: _97  and  _99
REMARK   42  A    between atoms: _99  and  _100
REMARK   43  A    between atoms: _103  and  _104
REMARK   44  A    between atoms: _109  and  _111
REMARK   45  A    between atoms: _111  and  _112
REMARK   46  A    between atoms: _111  and  _114
REMARK   47  A    between atoms: _117  and  _119
REMARK   48  A    between atoms: _119  and  _120
REMARK   49  A    between atoms: _123  and  _125
REMARK   50  A    between atoms: _125  and  _126
REMARK   51  A    between atoms: _125  and  _128
REMARK   52  A    between atoms: _128  and  _129
REMARK   53  A    between atoms: _132  and  _134
REMARK   54  A    between atoms: _134  and  _135
REMARK   55  A    between atoms: _134  and  _137
REMARK   56  A    between atoms: _137  and  _138
REMARK   57  A    between atoms: _138  and  _139
REMARK   58  A    between atoms: _139  and  _140
REMARK   59  A    between atoms: _140  and  _141
REMARK   60  A    between atoms: _145  and  _147
REMARK   61  A    between atoms: _147  and  _148
REMARK   62  A    between atoms: _147  and  _150
REMARK   63  A    between atoms: _150  and  _151
REMARK   64  A    between atoms: _156  and  _158
REMARK   65  A    between atoms: _158  and  _159
REMARK   66  A    between atoms: _158  and  _161
REMARK   67  A    between atoms: _164  and  _166
REMARK   68  A    between atoms: _166  and  _167
REMARK   69  A    between atoms: _166  and  _169
REMARK   70  A    between atoms: _169  and  _170
REMARK   71  A    between atoms: _170  and  _171
REMARK   72  A    between atoms: _174  and  _176
REMARK   73  A    between atoms: _176  and  _177
REMARK   74  A    between atoms: _176  and  _179
REMARK   75  A    between atoms: _179  and  _180
REMARK   76  A    between atoms: _183  and  _185
REMARK   77  A    between atoms: _185  and  _186
REMARK   78  A    between atoms: _185  and  _188
REMARK   79  A    between atoms: _188  and  _189
REMARK   80  A    between atoms: _192  and  _194
REMARK   81  A    between atoms: _194  and  _195
REMARK   82  A    between atoms: _194  and  _197
REMARK   83  A    between atoms: _197  and  _198
REMARK   84  A    between atoms: _198  and  _199
REMARK   85  A    between atoms: _199  and  _200
REMARK   86  A    between atoms: _209  and  _211
REMARK   87  A    between atoms: _211  and  _212
REMARK   88  A    between atoms: _211  and  _214
REMARK   89  A    between atoms: _214  and  _215
REMARK   90  A    between atoms: _218  and  _220
REMARK   91  A    between atoms: _220  and  _221
REMARK   92  A    between atoms: _220  and  _223
REMARK   93  A    between atoms: _223  and  _224
REMARK   94  A    between atoms: _227  and  _229
REMARK   95  A    between atoms: _229  and  _230
REMARK   96  A    between atoms: _229  and  _232
REMARK   97  A    between atoms: _232  and  _233
REMARK   98  A    between atoms: _236  and  _238
REMARK   99  A    between atoms: _238  and  _239
REMARK  100  A    between atoms: _238  and  _241
REMARK  101  A    between atoms: _241  and  _242
REMARK  102  A    between atoms: _245  and  _247
REMARK  103  A    between atoms: _247  and  _248
REMARK  104  A    between atoms: _247  and  _250
REMARK  105  A    between atoms: _250  and  _251
REMARK  106  A    between atoms: _251  and  _252
REMARK  107  A    between atoms: _255  and  _257
REMARK  108  A    between atoms: _257  and  _258
REMARK  109  A    between atoms: _257  and  _260
REMARK  110  A    between atoms: _260  and  _261
REMARK  111  A    between atoms: _261  and  _262
REMARK  112  A    between atoms: _262  and  _263
REMARK  113  A    between atoms: _273  and  _274
REMARK  114  A    between atoms: _279  and  _281
REMARK  115  A    between atoms: _281  and  _282
REMARK  116  A    between atoms: _281  and  _284
REMARK  117  A    between atoms: _284  and  _285
REMARK  118  A    between atoms: _285  and  _286
REMARK  119  A    between atoms: _290  and  _291
REMARK  120  A    between atoms: _296  and  _298
REMARK  121  A    between atoms: _298  and  _299
REMARK  122  A    between atoms: _298  and  _301
REMARK  123  A    between atoms: _304  and  _306
REMARK  124  A    between atoms: _306  and  _307
REMARK  125  A    between atoms: _306  and  _309
REMARK  126  A    between atoms: _309  and  _310
REMARK  127  A    between atoms: _310  and  _311
REMARK  128  A    between atoms: _316  and  _318
REMARK  129  A    between atoms: _318  and  _319
REMARK  130  A    between atoms: _318  and  _321
REMARK  131  A    between atoms: _321  and  _322
REMARK  132  A    between atoms: _325  and  _327
REMARK  133  A    between atoms: _327  and  _328
REMARK  134  A    between atoms: _327  and  _330
REMARK  135  A    between atoms: _330  and  _331
REMARK  136  A    between atoms: _334  and  _336
REMARK  137  A    between atoms: _336  and  _337
REMARK  138  A    between atoms: _336  and  _339
REMARK  139  A    between atoms: _339  and  _340
REMARK  140  A    between atoms: _346  and  _348
REMARK  141  A    between atoms: _348  and  _349
REMARK  142  A    between atoms: _348  and  _351
REMARK  143  A    between atoms: _351  and  _352
REMARK  144  A    between atoms: _355  and  _357
REMARK  145  A    between atoms: _357  and  _358
REMARK  146  A    between atoms: _357  and  _360
REMARK  147  A    between atoms: _360  and  _361
REMARK  148  A    between atoms: _367  and  _369
REMARK  149  A    between atoms: _369  and  _370
REMARK  150  A    between atoms: _369  and  _372
REMARK  151  A    between atoms: _372  and  _373
REMARK  152  A    between atoms: _376  and  _378
REMARK  153  A    between atoms: _378  and  _379
REMARK  154  A    between atoms: _378  and  _381
REMARK  155  A    between atoms: _381  and  _382
REMARK  156  A    between atoms: _385  and  _387
REMARK  157  A    between atoms: _387  and  _388
REMARK  158  A    between atoms: _387  and  _390
REMARK  159  A    between atoms: _390  and  _391
REMARK  160  A    between atoms: _391  and  _392
REMARK  161  A    between atoms: _395  and  _397
REMARK  162  A    between atoms: _397  and  _398
REMARK  163  A    between atoms: _397  and  _400
REMARK  164  A    between atoms: _400  and  _401
REMARK  165  A    between atoms: _406  and  _408
REMARK  166  A    between atoms: _408  and  _409
REMARK  167  A    between atoms: _408  and  _411
REMARK  168  A    between atoms: _411  and  _412
REMARK  169  A    between atoms: _415  and  _417
REMARK  170  A    between atoms: _417  and  _418
REMARK  171  A    between atoms: _417  and  _420
REMARK  172  A    between atoms: _420  and  _421
REMARK  173  A    between atoms: _424  and  _426
REMARK  174  A    between atoms: _426  and  _427
REMARK  175  A    between atoms: _426  and  _429
REMARK  176  A    between atoms: _429  and  _430
REMARK  177  A    between atoms: _433  and  _435
REMARK  178  A    between atoms: _435  and  _436
REMARK  179  A    between atoms: _435  and  _438
REMARK  180  A    between atoms: _438  and  _439
REMARK  181  A    between atoms: _442  and  _444
REMARK  182  A    between atoms: _444  and  _445
REMARK  183  A    between atoms: _444  and  _447
REMARK  184  A    between atoms: _447  and  _448
REMARK  185  A    between atoms: _451  and  _453
REMARK  186  A    between atoms: _453  and  _454
REMARK  187  A    between atoms: _453  and  _456
REMARK  188  A    between atoms: _456  and  _457
REMARK  189  A    between atoms: _457  and  _458
REMARK  190  A    between atoms: _458  and  _459
REMARK  191  A    between atoms: _459  and  _460
REMARK  192  A    between atoms: _464  and  _466
REMARK  193  A    between atoms: _466  and  _467
REMARK  194  A    between atoms: _466  and  _469
REMARK  195  A    between atoms: _469  and  _470
REMARK  196  A    between atoms: _473  and  _475
REMARK  197  A    between atoms: _475  and  _476
REMARK  198  A    between atoms: _475  and  _478
REMARK  199  A    between atoms: _478  and  _479
REMARK  200  A    between atoms: _482  and  _484
REMARK  201  A    between atoms: _484  and  _485
REMARK  202  A    between atoms: _484  and  _487
REMARK  203  A    between atoms: _487  and  _488
REMARK  204  A    between atoms: _491  and  _493
REMARK  205  A    between atoms: _493  and  _494
REMARK  206  A    between atoms: _493  and  _496
REMARK  207  A    between atoms: _496  and  _497
REMARK  208  A    between atoms: _503  and  _505
REMARK  209  A    between atoms: _505  and  _506
REMARK  210  A    between atoms: _508  and  _510
REMARK  211  A    between atoms: _510  and  _511
REMARK  212  A    between atoms: _510  and  _513
REMARK  213  A    between atoms: _513  and  _514
REMARK                            x       y       z     vdW  Elec       q    Type
REMARK                         _______ _______ _______ _____ _____    ______ ____
ROOT
ATOM      1  C   ILE A   3     -13.280 -36.299  -0.781  0.00  0.00    +0.241 C 
ATOM      2  O   ILE A   3     -12.140 -36.426  -0.315  0.00  0.00    -0.273 OA
ATOM      3  N   ASP A   4     -13.822 -35.132  -1.119  0.00  0.00    -0.297 N 
ATOM      4  H   ASP A   4     -14.723 -35.141  -1.639  0.00  0.00    +0.150 HD
ENDROOT
BRANCH   3   5
ATOM      5  CA  ASP A   4     -13.221 -33.838  -0.800  0.00  0.00    +0.160 C 
BRANCH   5   6
ATOM      6  C   ASP A   4     -11.917 -33.551  -1.539  0.00  0.00    +0.241 C 
ATOM      7  O   ASP A   4     -10.825 -33.632  -0.967  0.00  0.00    -0.273 OA
ATOM      8  N   PHE A   5     -12.053 -33.179  -2.806  0.00  0.00    -0.297 N 
ATOM      9  H   PHE A   5     -12.997 -33.209  -3.242  0.00  0.00    +0.150 HD
BRANCH   8  10
ATOM     10  CA  PHE A   5     -10.921 -32.731  -3.603  0.00  0.00    +0.153 C 
BRANCH  10  11
ATOM     11  C   PHE A   5     -10.744 -31.220  -3.494  0.00  0.00    +0.241 C 
ATOM     12  N   GLY A   6     -11.241 -30.655  -2.397  0.00  0.00    -0.295 N 
ATOM     13  H   GLY A   6     -11.676 -31.261  -1.673  0.00  0.00    +0.150 HD
ATOM     14  O   PHE A   5     -10.156 -30.587  -4.370  0.00  0.00    -0.273 OA
BRANCH  12  15
ATOM     15  CA  GLY A   6     -11.197 -29.219  -2.176  0.00  0.00    +0.176 C 
BRANCH  15  16
ATOM     16  C   GLY A   6      -9.801 -28.674  -1.939  0.00  0.00    +0.243 C 
ATOM     17  N   SER A   7      -8.853 -29.555  -1.631  0.00  0.00    -0.296 N 
ATOM     18  H   SER A   7      -9.103 -30.559  -1.523  0.00  0.00    +0.150 HD
ATOM     19  O   GLY A   6      -9.581 -27.469  -2.026  0.00  0.00    -0.273 OA
BRANCH  17  20
ATOM     20  CA  SER A   7      -7.468 -29.136  -1.442  0.00  0.00    +0.166 C 
BRANCH  20  21
ATOM     21  C   SER A   7      -6.570 -29.712  -2.530  0.00  0.00    +0.229 C 
ATOM     22  O   SER A   7      -5.350 -29.611  -2.446  0.00  0.00    -0.286 OA
ENDBRANCH  20  21
BRANCH  20  23
ATOM     23  CB  SER A   7      -6.943 -29.581  -0.072  0.00  0.00    +0.165 C 
BRANCH  23  24
ATOM     24  OG  SER A   7      -7.784 -29.143   0.975  0.00  0.00    -0.380 OA
ATOM     25  H   SER A   7      -8.690 -29.521   0.849  0.00  0.00    +0.211 HD
ENDBRANCH  23  24
ENDBRANCH  20  23
ENDBRANCH  17  20
ENDBRANCH  15  16
ENDBRANCH  12  15
ENDBRANCH  10  11
BRANCH  10  26
ATOM     26  CB  PHE A   5     -11.099 -33.161  -5.060  0.00  0.00    +0.055 C 
BRANCH  26  27
ATOM     27  CG  PHE A   5     -10.969 -34.648  -5.267  0.00  0.00    -0.020 A 
ATOM     28  CD2 PHE A   5     -12.057 -35.486  -5.079  0.00  0.00    -0.004 A 
ATOM     29  CE2 PHE A   5     -11.939 -36.860  -5.255  0.00  0.00    -0.000 A 
ATOM     30  CZ  PHE A   5     -10.721 -37.409  -5.622  0.00  0.00    -0.000 A 
ATOM     31  CE1 PHE A   5      -9.626 -36.588  -5.804  0.00  0.00    -0.000 A 
ATOM     32  CD1 PHE A   5      -9.751 -35.210  -5.623  0.00  0.00    -0.004 A 
ENDBRANCH  26  27
ENDBRANCH  10  26
ENDBRANCH   8  10
ENDBRANCH   5   6
BRANCH   5  33
ATOM     33  CB  ASP A   4     -13.052 -33.665   0.714  0.00  0.00    +0.143 C 
BRANCH  33  34
ATOM     34  CG  ASP A   4     -12.667 -32.238   1.104  0.00  0.00    +0.367 C 
ATOM     35  OD2 ASP A   4     -12.453 -31.982   2.308  0.00  0.00    -0.246 OA
ATOM     36  OD1 ASP A   4     -12.586 -31.365   0.215  0.00  0.00    -0.246 OA
ENDBRANCH  33  34
ENDBRANCH   5  33
ENDBRANCH   3   5
BRANCH   1  37
ATOM     37  CA  ILE A   3     -14.181 -37.503  -1.012  0.00  0.00    +0.149 C 
BRANCH  37  39
ATOM     38  C   LEU A   2     -13.490 -39.703  -1.786  0.00  0.00    +0.241 C 
ATOM     39  N   ILE A   3     -13.470 -38.766  -0.844  0.00  0.00    -0.297 N 
ATOM     40  H   ILE A   3     -12.936 -38.937   0.032  0.00  0.00    +0.150 HD
ATOM     41  O   LEU A   2     -14.192 -39.627  -2.796  0.00  0.00    -0.273 OA
BRANCH  38  42
ATOM     42  CA  LEU A   2     -12.558 -40.890  -1.581  0.00  0.00    +0.149 C 
BRANCH  42  45
ATOM     43  C   LYS A   1     -14.107 -42.713  -1.052  0.00  0.00    +0.238 C 
ATOM     44  O   LYS A   1     -14.431 -42.222   0.029  0.00  0.00    -0.274 OA
ATOM     45  N   LEU A   2     -13.225 -42.154  -1.877  0.00  0.00    -0.297 N 
ATOM     46  H   LEU A   2     -13.002 -42.638  -2.770  0.00  0.00    +0.150 HD
BRANCH  43  47
ATOM     47  CA  LYS A   1     -14.724 -44.020  -1.524  0.00  0.00    +0.145 C 
BRANCH  47  48
ATOM     48  N   LYS A   1     -14.641 -45.048  -0.492  0.00  0.00    -0.238 NA
ATOM     49  H   LYS A   1     -14.834 -44.794   0.498  0.00  0.00    +0.142 HD
ENDBRANCH  47  48
BRANCH  47  50
ATOM     50  CB  LYS A   1     -16.182 -43.774  -1.917  0.00  0.00    +0.026 C 
BRANCH  50  51
ATOM     51  CG  LYS A   1     -16.889 -44.979  -2.503  0.00  0.00    -0.000 C 
BRANCH  51  52
ATOM     52  CD  LYS A   1     -18.336 -44.649  -2.809  0.00  0.00    -0.024 C 
BRANCH  52  53
ATOM     53  CE  LYS A   1     -19.008 -45.749  -3.594  0.00  0.00    -0.086 C 
BRANCH  53  54
ATOM     54  NZ  LYS A   1     -18.412 -45.918  -4.943  0.00  0.00    +0.380 N 
ATOM     55  HZ1 LYS A   1     -17.404 -46.157  -4.848  0.00  0.00    -0.089 HD
ATOM     56  HZ2 LYS A   1     -18.905 -46.684  -5.445  0.00  0.00    -0.089 HD
ATOM     57  HZ3 LYS A   1     -18.511 -45.031  -5.478  0.00  0.00    -0.089 HD
ENDBRANCH  53  54
ENDBRANCH  52  53
ENDBRANCH  51  52
ENDBRANCH  50  51
ENDBRANCH  47  50
ENDBRANCH  43  47
ENDBRANCH  42  45
BRANCH  42  58
ATOM     58  CB  LEU A   2     -11.352 -40.708  -2.506  0.00  0.00    +0.029 C 
BRANCH  58  59
ATOM     59  CG  LEU A   2      -9.940 -41.046  -2.024  0.00  0.00    +0.002 C 
ATOM     60  CD2 LEU A   2      -9.901 -42.391  -1.332  0.00  0.00    +0.000 C 
ATOM     61  CD1 LEU A   2      -8.971 -41.019  -3.206  0.00  0.00    +0.000 C 
ENDBRANCH  58  59
ENDBRANCH  42  58
ENDBRANCH  38  42
ENDBRANCH  37  39
BRANCH  37  62
ATOM     62  CB  ILE A   3     -15.379 -37.367  -0.045  0.00  0.00    +0.027 C 
ATOM     63  CG2 ILE A   3     -16.427 -38.418  -0.333  0.00  0.00    +0.002 C 
BRANCH  62  64
ATOM     64  CG1 ILE A   3     -14.906 -37.448   1.407  0.00  0.00    +0.002 C 
ATOM     65  CD1 ILE A   3     -15.944 -36.975   2.416  0.00  0.00    +0.000 C 
ENDBRANCH  62  64
ENDBRANCH  37  62
ENDBRANCH   1  37
TORSDOF 29
REMARK  Name = ../refined-set-2016/4k18/4k18_pocket.pdb
REMARK  213 active torsions:
REMARK  status: ('A' for Active; 'I' for Inactive)
REMARK    1  A    between atoms: _1  and  _3
REMARK    2  A    between atoms: _3  and  _4
REMARK    3  A    between atoms: _3  and  _6
REMARK    4  A    between atoms: _6  and  _7
REMARK    5  A    between atoms: _10  and  _12
REMARK    6  A    between atoms: _12  and  _13
REMARK    7  A    between atoms: _12  and  _15
REMARK    8  A    between atoms: _15  and  _16
REMARK    9  A    between atoms: _19  and  _21
REMARK   10  A    between atoms: _21  and  _22
REMARK   11  A    between atoms: _24  and  _26
REMARK   12  A    between atoms: _26  and  _27
REMARK   13  A    between atoms: _26  and  _29
REMARK   14  A    between atoms: _29  and  _30
REMARK   15  A    between atoms: _32  and  _34
REMARK   16  A    between atoms: _34  and  _35
REMARK   17  A    between atoms: _37  and  _39
REMARK   18  A    between atoms: _39  and  _40
REMARK   19  A    between atoms: _42  and  _44
REMARK   20  A    between atoms: _44  and  _45
REMARK   21  A    between atoms: _44  and  _47
REMARK   22  A    between atoms: _47  and  _48
REMARK   23  A    between atoms: _54  and  _56
REMARK   24  A    between atoms: _56  and  _57
REMARK   25  A    between atoms: _59  and  _61
REMARK   26  A    between atoms: _61  and  _62
REMARK   27  A    between atoms: _61  and  _64
REMARK   28  A    between atoms: _64  and  _65
REMARK   29  A    between atoms: _67  and  _69
REMARK   30  A    between atoms: _69  and  _70
REMARK   31  A    between atoms: _69  and  _72
REMARK   32  A    between atoms: _75  and  _77
REMARK   33  A    between atoms: _77  and  _78
REMARK   34  A    between atoms: _77  and  _80
REMARK   35  A    between atoms: _80  and  _81
REMARK   36  A    between atoms: _86  and  _87
REMARK   37  A    between atoms: _89  and  _91
REMARK   38  A    between atoms: _91  and  _92
REMARK   39  A    between atoms: _91  and  _94
REMARK   40  A    between atoms: _94  and  _95
REMARK   41  A    between atoms: _97  and  _99
REMARK   42  A    between atoms: _99  and  _100
REMARK   43  A    between atoms: _103  and  _104
REMARK   44  A    between atoms: _109  and  _111
REMARK   45  A    between atoms: _111  and  _112
REMARK   46  A    between atoms: _111  and  _114
REMARK   47  A    between atoms: _117  and  _119
REMARK   48  A    between atoms: _119  and  _120
REMARK   49  A    between atoms: _123  and  _125
REMARK   50  A    between atoms: _125  and  _126
REMARK   51  A    between atoms: _125  and  _128
REMARK   52  A    between atoms: _128  and  _129
REMARK   53  A    between atoms: _132  and  _134
REMARK   54  A    between atoms: _134  and  _135
REMARK   55  A    between atoms: _134  and  _137
REMARK   56  A    between atoms: _137  and  _138
REMARK   57  A    between atoms: _138  and  _139
REMARK   58  A    between atoms: _139  and  _140
REMARK   59  A    between atoms: _140  and  _141
REMARK   60  A    between atoms: _145  and  _147
REMARK   61  A    between atoms: _147  and  _148
REMARK   62  A    between atoms: _147  and  _150
REMARK   63  A    between atoms: _150  and  _151
REMARK   64  A    between atoms: _156  and  _158
REMARK   65  A    between atoms: _158  and  _159
REMARK   66  A    between atoms: _158  and  _161
REMARK   67  A    between atoms: _164  and  _166
REMARK   68  A    between atoms: _166  and  _167
REMARK   69  A    between atoms: _166  and  _169
REMARK   70  A    between atoms: _169  and  _170
REMARK   71  A    between atoms: _170  and  _171
REMARK   72  A    between atoms: _174  and  _176
REMARK   73  A    between atoms: _176  and  _177
REMARK   74  A    between atoms: _176  and  _179
REMARK   75  A    between atoms: _179  and  _180
REMARK   76  A    between atoms: _183  and  _185
REMARK   77  A    between atoms: _185  and  _186
REMARK   78  A    between atoms: _185  and  _188
REMARK   79  A    between atoms: _188  and  _189
REMARK   80  A    between atoms: _192  and  _194
REMARK   81  A    between atoms: _194  and  _195
REMARK   82  A    between atoms: _194  and  _197
REMARK   83  A    between atoms: _197  and  _198
REMARK   84  A    between atoms: _198  and  _199
REMARK   85  A    between atoms: _199  and  _200
REMARK   86  A    between atoms: _209  and  _211
REMARK   87  A    between atoms: _211  and  _212
REMARK   88  A    between atoms: _211  and  _214
REMARK   89  A    between atoms: _214  and  _215
REMARK   90  A    between atoms: _218  and  _220
REMARK   91  A    between atoms: _220  and  _221
REMARK   92  A    between atoms: _220  and  _223
REMARK   93  A    between atoms: _223  and  _224
REMARK   94  A    between atoms: _227  and  _229
REMARK   95  A    between atoms: _229  and  _230
REMARK   96  A    between atoms: _229  and  _232
REMARK   97  A    between atoms: _232  and  _233
REMARK   98  A    between atoms: _236  and  _238
REMARK   99  A    between atoms: _238  and  _239
REMARK  100  A    between atoms: _238  and  _241
REMARK  101  A    between atoms: _241  and  _242
REMARK  102  A    between atoms: _245  and  _247
REMARK  103  A    between atoms: _247  and  _248
REMARK  104  A    between atoms: _247  and  _250
REMARK  105  A    between atoms: _250  and  _251
REMARK  106  A    between atoms: _251  and  _252
REMARK  107  A    between atoms: _255  and  _257
REMARK  108  A    between atoms: _257  and  _258
REMARK  109  A    between atoms: _257  and  _260
REMARK  110  A    between atoms: _260  and  _261
REMARK  111  A    between atoms: _261  and  _262
REMARK  112  A    between atoms: _262  and  _263
REMARK  113  A    between atoms: _273  and  _274
REMARK  114  A    between atoms: _279  and  _281
REMARK  115  A    between atoms: _281  and  _282
REMARK  116  A    between atoms: _281  and  _284
REMARK  117  A    between atoms: _284  and  _285
REMARK  118  A    between atoms: _285  and  _286
REMARK  119  A    between atoms: _290  and  _291
REMARK  120  A    between atoms: _296  and  _298
REMARK  121  A    between atoms: _298  and  _299
REMARK  122  A    between atoms: _298  and  _301
REMARK  123  A    between atoms: _304  and  _306
REMARK  124  A    between atoms: _306  and  _307
REMARK  125  A    between atoms: _306  and  _309
REMARK  126  A    between atoms: _309  and  _310
REMARK  127  A    between atoms: _310  and  _311
REMARK  128  A    between atoms: _316  and  _318
REMARK  129  A    between atoms: _318  and  _319
REMARK  130  A    between atoms: _318  and  _321
REMARK  131  A    between atoms: _321  and  _322
REMARK  132  A    between atoms: _325  and  _327
REMARK  133  A    between atoms: _327  and  _328
REMARK  134  A    between atoms: _327  and  _330
REMARK  135  A    between atoms: _330  and  _331
REMARK  136  A    between atoms: _334  and  _336
REMARK  137  A    between atoms: _336  and  _337
REMARK  138  A    between atoms: _336  and  _339
REMARK  139  A    between atoms: _339  and  _340
REMARK  140  A    between atoms: _346  and  _348
REMARK  141  A    between atoms: _348  and  _349
REMARK  142  A    between atoms: _348  and  _351
REMARK  143  A    between atoms: _351  and  _352
REMARK  144  A    between atoms: _355  and  _357
REMARK  145  A    between atoms: _357  and  _358
REMARK  146  A    between atoms: _357  and  _360
REMARK  147  A    between atoms: _360  and  _361
REMARK  148  A    between atoms: _367  and  _369
REMARK  149  A    between atoms: _369  and  _370
REMARK  150  A    between atoms: _369  and  _372
REMARK  151  A    between atoms: _372  and  _373
REMARK  152  A    between atoms: _376  and  _378
REMARK  153  A    between atoms: _378  and  _379
REMARK  154  A    between atoms: _378  and  _381
REMARK  155  A    between atoms: _381  and  _382
REMARK  156  A    between atoms: _385  and  _387
REMARK  157  A    between atoms: _387  and  _388
REMARK  158  A    between atoms: _387  and  _390
REMARK  159  A    between atoms: _390  and  _391
REMARK  160  A    between atoms: _391  and  _392
REMARK  161  A    between atoms: _395  and  _397
REMARK  162  A    between atoms: _397  and  _398
REMARK  163  A    between atoms: _397  and  _400
REMARK  164  A    between atoms: _400  and  _401
REMARK  165  A    between atoms: _406  and  _408
REMARK  166  A    between atoms: _408  and  _409
REMARK  167  A    between atoms: _408  and  _411
REMARK  168  A    between atoms: _411  and  _412
REMARK  169  A    between atoms: _415  and  _417
REMARK  170  A    between atoms: _417  and  _418
REMARK  171  A    between atoms: _417  and  _420
REMARK  172  A    between atoms: _420  and  _421
REMARK  173  A    between atoms: _424  and  _426
REMARK  174  A    between atoms: _426  and  _427
REMARK  175  A    between atoms: _426  and  _429
REMARK  176  A    between atoms: _429  and  _430
REMARK  177  A    between atoms: _433  and  _435
REMARK  178  A    between atoms: _435  and  _436
REMARK  179  A    between atoms: _435  and  _438
REMARK  180  A    between atoms: _438  and  _439
REMARK  181  A    between atoms: _442  and  _444
REMARK  182  A    between atoms: _444  and  _445
REMARK  183  A    between atoms: _444  and  _447
REMARK  184  A    between atoms: _447  and  _448
REMARK  185  A    between atoms: _451  and  _453
REMARK  186  A    between atoms: _453  and  _454
REMARK  187  A    between atoms: _453  and  _456
REMARK  188  A    between atoms: _456  and  _457
REMARK  189  A    between atoms: _457  and  _458
REMARK  190  A    between atoms: _458  and  _459
REMARK  191  A    between atoms: _459  and  _460
REMARK  192  A    between atoms: _464  and  _466
REMARK  193  A    between atoms: _466  and  _467
REMARK  194  A    between atoms: _466  and  _469
REMARK  195  A    between atoms: _469  and  _470
REMARK  196  A    between atoms: _473  and  _475
REMARK  197  A    between atoms: _475  and  _476
REMARK  198  A    between atoms: _475  and  _478
REMARK  199  A    between atoms: _478  and  _479
REMARK  200  A    between atoms: _482  and  _484
REMARK  201  A    between atoms: _484  and  _485
REMARK  202  A    between atoms: _484  and  _487
REMARK  203  A    between atoms: _487  and  _488
REMARK  204  A    between atoms: _491  and  _493
REMARK  205  A    between atoms: _493  and  _494
REMARK  206  A    between atoms: _493  and  _496
REMARK  207  A    between atoms: _496  and  _497
REMARK  208  A    between atoms: _503  and  _505
REMARK  209  A    between atoms: _505  and  _506
REMARK  210  A    between atoms: _508  and  _510
REMARK  211  A    between atoms: _510  and  _511
REMARK  212  A    between atoms: _510  and  _513
REMARK  213  A    between atoms: _513  and  _514
REMARK                            x       y       z     vdW  Elec       q    Type
REMARK                         _______ _______ _______ _____ _____    ______ ____
ROOT
ATOM      1  O   HOH     1     -15.218 -37.382  -4.426  0.00  0.00    +0.000 OA
ENDROOT
TORSDOF 0
REMARK  Name = ../refined-set-2016/4k18/4k18_pocket.pdb
REMARK  213 active torsions:
REMARK  status: ('A' for Active; 'I' for Inactive)
REMARK    1  A    between atoms: _1  and  _3
REMARK    2  A    between atoms: _3  and  _4
REMARK    3  A    between atoms: _3  and  _6
REMARK    4  A    between atoms: _6  and  _7
REMARK    5  A    between atoms: _10  and  _12
REMARK    6  A    between atoms: _12  and  _13
REMARK    7  A    between atoms: _12  and  _15
REMARK    8  A    between atoms: _15  and  _16
REMARK    9  A    between atoms: _19  and  _21
REMARK   10  A    between atoms: _21  and  _22
REMARK   11  A    between atoms: _24  and  _26
REMARK   12  A    between atoms: _26  and  _27
REMARK   13  A    between atoms: _26  and  _29
REMARK   14  A    between atoms: _29  and  _30
REMARK   15  A    between atoms: _32  and  _34
REMARK   16  A    between atoms: _34  and  _35
REMARK   17  A    between atoms: _37  and  _39
REMARK   18  A    between atoms: _39  and  _40
REMARK   19  A    between atoms: _42  and  _44
REMARK   20  A    between atoms: _44  and  _45
REMARK   21  A    between atoms: _44  and  _47
REMARK   22  A    between atoms: _47  and  _48
REMARK   23  A    between atoms: _54  and  _56
REMARK   24  A    between atoms: _56  and  _57
REMARK   25  A    between atoms: _59  and  _61
REMARK   26  A    between atoms: _61  and  _62
REMARK   27  A    between atoms: _61  and  _64
REMARK   28  A    between atoms: _64  and  _65
REMARK   29  A    between atoms: _67  and  _69
REMARK   30  A    between atoms: _69  and  _70
REMARK   31  A    between atoms: _69  and  _72
REMARK   32  A    between atoms: _75  and  _77
REMARK   33  A    between atoms: _77  and  _78
REMARK   34  A    between atoms: _77  and  _80
REMARK   35  A    between atoms: _80  and  _81
REMARK   36  A    between atoms: _86  and  _87
REMARK   37  A    between atoms: _89  and  _91
REMARK   38  A    between atoms: _91  and  _92
REMARK   39  A    between atoms: _91  and  _94
REMARK   40  A    between atoms: _94  and  _95
REMARK   41  A    between atoms: _97  and  _99
REMARK   42  A    between atoms: _99  and  _100
REMARK   43  A    between atoms: _103  and  _104
REMARK   44  A    between atoms: _109  and  _111
REMARK   45  A    between atoms: _111  and  _112
REMARK   46  A    between atoms: _111  and  _114
REMARK   47  A    between atoms: _117  and  _119
REMARK   48  A    between atoms: _119  and  _120
REMARK   49  A    between atoms: _123  and  _125
REMARK   50  A    between atoms: _125  and  _126
REMARK   51  A    between atoms: _125  and  _128
REMARK   52  A    between atoms: _128  and  _129
REMARK   53  A    between atoms: _132  and  _134
REMARK   54  A    between atoms: _134  and  _135
REMARK   55  A    between atoms: _134  and  _137
REMARK   56  A    between atoms: _137  and  _138
REMARK   57  A    between atoms: _138  and  _139
REMARK   58  A    between atoms: _139  and  _140
REMARK   59  A    between atoms: _140  and  _141
REMARK   60  A    between atoms: _145  and  _147
REMARK   61  A    between atoms: _147  and  _148
REMARK   62  A    between atoms: _147  and  _150
REMARK   63  A    between atoms: _150  and  _151
REMARK   64  A    between atoms: _156  and  _158
REMARK   65  A    between atoms: _158  and  _159
REMARK   66  A    between atoms: _158  and  _161
REMARK   67  A    between atoms: _164  and  _166
REMARK   68  A    between atoms: _166  and  _167
REMARK   69  A    between atoms: _166  and  _169
REMARK   70  A    between atoms: _169  and  _170
REMARK   71  A    between atoms: _170  and  _171
REMARK   72  A    between atoms: _174  and  _176
REMARK   73  A    between atoms: _176  and  _177
REMARK   74  A    between atoms: _176  and  _179
REMARK   75  A    between atoms: _179  and  _180
REMARK   76  A    between atoms: _183  and  _185
REMARK   77  A    between atoms: _185  and  _186
REMARK   78  A    between atoms: _185  and  _188
REMARK   79  A    between atoms: _188  and  _189
REMARK   80  A    between atoms: _192  and  _194
REMARK   81  A    between atoms: _194  and  _195
REMARK   82  A    between atoms: _194  and  _197
REMARK   83  A    between atoms: _197  and  _198
REMARK   84  A    between atoms: _198  and  _199
REMARK   85  A    between atoms: _199  and  _200
REMARK   86  A    between atoms: _209  and  _211
REMARK   87  A    between atoms: _211  and  _212
REMARK   88  A    between atoms: _211  and  _214
REMARK   89  A    between atoms: _214  and  _215
REMARK   90  A    between atoms: _218  and  _220
REMARK   91  A    between atoms: _220  and  _221
REMARK   92  A    between atoms: _220  and  _223
REMARK   93  A    between atoms: _223  and  _224
REMARK   94  A    between atoms: _227  and  _229
REMARK   95  A    between atoms: _229  and  _230
REMARK   96  A    between atoms: _229  and  _232
REMARK   97  A    between atoms: _232  and  _233
REMARK   98  A    between atoms: _236  and  _238
REMARK   99  A    between atoms: _238  and  _239
REMARK  100  A    between atoms: _238  and  _241
REMARK  101  A    between atoms: _241  and  _242
REMARK  102  A    between atoms: _245  and  _247
REMARK  103  A    between atoms: _247  and  _248
REMARK  104  A    between atoms: _247  and  _250
REMARK  105  A    between atoms: _250  and  _251
REMARK  106  A    between atoms: _251  and  _252
REMARK  107  A    between atoms: _255  and  _257
REMARK  108  A    between atoms: _257  and  _258
REMARK  109  A    between atoms: _257  and  _260
REMARK  110  A    between atoms: _260  and  _261
REMARK  111  A    between atoms: _261  and  _262
REMARK  112  A    between atoms: _262  and  _263
REMARK  113  A    between atoms: _273  and  _274
REMARK  114  A    between atoms: _279  and  _281
REMARK  115  A    between atoms: _281  and  _282
REMARK  116  A    between atoms: _281  and  _284
REMARK  117  A    between atoms: _284  and  _285
REMARK  118  A    between atoms: _285  and  _286
REMARK  119  A    between atoms: _290  and  _291
REMARK  120  A    between atoms: _296  and  _298
REMARK  121  A    between atoms: _298  and  _299
REMARK  122  A    between atoms: _298  and  _301
REMARK  123  A    between atoms: _304  and  _306
REMARK  124  A    between atoms: _306  and  _307
REMARK  125  A    between atoms: _306  and  _309
REMARK  126  A    between atoms: _309  and  _310
REMARK  127  A    between atoms: _310  and  _311
REMARK  128  A    between atoms: _316  and  _318
REMARK  129  A    between atoms: _318  and  _319
REMARK  130  A    between atoms: _318  and  _321
REMARK  131  A    between atoms: _321  and  _322
REMARK  132  A    between atoms: _325  and  _327
REMARK  133  A    between atoms: _327  and  _328
REMARK  134  A    between atoms: _327  and  _330
REMARK  135  A    between atoms: _330  and  _331
REMARK  136  A    between atoms: _334  and  _336
REMARK  137  A    between atoms: _336  and  _337
REMARK  138  A    between atoms: _336  and  _339
REMARK  139  A    between atoms: _339  and  _340
REMARK  140  A    between atoms: _346  and  _348
REMARK  141  A    between atoms: _348  and  _349
REMARK  142  A    between atoms: _348  and  _351
REMARK  143  A    between atoms: _351  and  _352
REMARK  144  A    between atoms: _355  and  _357
REMARK  145  A    between atoms: _357  and  _358
REMARK  146  A    between atoms: _357  and  _360
REMARK  147  A    between atoms: _360  and  _361
REMARK  148  A    between atoms: _367  and  _369
REMARK  149  A    between atoms: _369  and  _370
REMARK  150  A    between atoms: _369  and  _372
REMARK  151  A    between atoms: _372  and  _373
REMARK  152  A    between atoms: _376  and  _378
REMARK  153  A    between atoms: _378  and  _379
REMARK  154  A    between atoms: _378  and  _381
REMARK  155  A    between atoms: _381  and  _382
REMARK  156  A    between atoms: _385  and  _387
REMARK  157  A    between atoms: _387  and  _388
REMARK  158  A    between atoms: _387  and  _390
REMARK  159  A    between atoms: _390  and  _391
REMARK  160  A    between atoms: _391  and  _392
REMARK  161  A    between atoms: _395  and  _397
REMARK  162  A    between atoms: _397  and  _398
REMARK  163  A    between atoms: _397  and  _400
REMARK  164  A    between atoms: _400  and  _401
REMARK  165  A    between atoms: _406  and  _408
REMARK  166  A    between atoms: _408  and  _409
REMARK  167  A    between atoms: _408  and  _411
REMARK  168  A    between atoms: _411  and  _412
REMARK  169  A    between atoms: _415  and  _417
REMARK  170  A    between atoms: _417  and  _418
REMARK  171  A    between atoms: _417  and  _420
REMARK  172  A    between atoms: _420  and  _421
REMARK  173  A    between atoms: _424  and  _426
REMARK  174  A    between atoms: _426  and  _427
REMARK  175  A    between atoms: _426  and  _429
REMARK  176  A    between atoms: _429  and  _430
REMARK  177  A    between atoms: _433  and  _435
REMARK  178  A    between atoms: _435  and  _436
REMARK  179  A    between atoms: _435  and  _438
REMARK  180  A    between atoms: _438  and  _439
REMARK  181  A    between atoms: _442  and  _444
REMARK  182  A    between atoms: _444  and  _445
REMARK  183  A    between atoms: _444  and  _447
REMARK  184  A    between atoms: _447  and  _448
REMARK  185  A    between atoms: _451  and  _453
REMARK  186  A    between atoms: _453  and  _454
REMARK  187  A    between atoms: _453  and  _456
REMARK  188  A    between atoms: _456  and  _457
REMARK  189  A    between atoms: _457  and  _458
REMARK  190  A    between atoms: _458  and  _459
REMARK  191  A    between atoms: _459  and  _460
REMARK  192  A    between atoms: _464  and  _466
REMARK  193  A    between atoms: _466  and  _467
REMARK  194  A    between atoms: _466  and  _469
REMARK  195  A    between atoms: _469  and  _470
REMARK  196  A    between atoms: _473  and  _475
REMARK  197  A    between atoms: _475  and  _476
REMARK  198  A    between atoms: _475  and  _478
REMARK  199  A    between atoms: _478  and  _479
REMARK  200  A    between atoms: _482  and  _484
REMARK  201  A    between atoms: _484  and  _485
REMARK  202  A    between atoms: _484  and  _487
REMARK  203  A    between atoms: _487  and  _488
REMARK  204  A    between atoms: _491  and  _493
REMARK  205  A    between atoms: _493  and  _494
REMARK  206  A    between atoms: _493  and  _496
REMARK  207  A    between atoms: _496  and  _497
REMARK  208  A    between atoms: _503  and  _505
REMARK  209  A    between atoms: _505  and  _506
REMARK  210  A    between atoms: _508  and  _510
REMARK  211  A    between atoms: _510  and  _511
REMARK  212  A    between atoms: _510  and  _513
REMARK  213  A    between atoms: _513  and  _514
REMARK                            x       y       z     vdW  Elec       q    Type
REMARK                         _______ _______ _______ _____ _____    ______ ____
ROOT
ATOM      1  O   HOH     1     -14.646 -34.150   4.499  0.00  0.00    +0.000 OA
ENDROOT
TORSDOF 0
REMARK  Name = ../refined-set-2016/4k18/4k18_pocket.pdb
REMARK  213 active torsions:
REMARK  status: ('A' for Active; 'I' for Inactive)
REMARK    1  A    between atoms: _1  and  _3
REMARK    2  A    between atoms: _3  and  _4
REMARK    3  A    between atoms: _3  and  _6
REMARK    4  A    between atoms: _6  and  _7
REMARK    5  A    between atoms: _10  and  _12
REMARK    6  A    between atoms: _12  and  _13
REMARK    7  A    between atoms: _12  and  _15
REMARK    8  A    between atoms: _15  and  _16
REMARK    9  A    between atoms: _19  and  _21
REMARK   10  A    between atoms: _21  and  _22
REMARK   11  A    between atoms: _24  and  _26
REMARK   12  A    between atoms: _26  and  _27
REMARK   13  A    between atoms: _26  and  _29
REMARK   14  A    between atoms: _29  and  _30
REMARK   15  A    between atoms: _32  and  _34
REMARK   16  A    between atoms: _34  and  _35
REMARK   17  A    between atoms: _37  and  _39
REMARK   18  A    between atoms: _39  and  _40
REMARK   19  A    between atoms: _42  and  _44
REMARK   20  A    between atoms: _44  and  _45
REMARK   21  A    between atoms: _44  and  _47
REMARK   22  A    between atoms: _47  and  _48
REMARK   23  A    between atoms: _54  and  _56
REMARK   24  A    between atoms: _56  and  _57
REMARK   25  A    between atoms: _59  and  _61
REMARK   26  A    between atoms: _61  and  _62
REMARK   27  A    between atoms: _61  and  _64
REMARK   28  A    between atoms: _64  and  _65
REMARK   29  A    between atoms: _67  and  _69
REMARK   30  A    between atoms: _69  and  _70
REMARK   31  A    between atoms: _69  and  _72
REMARK   32  A    between atoms: _75  and  _77
REMARK   33  A    between atoms: _77  and  _78
REMARK   34  A    between atoms: _77  and  _80
REMARK   35  A    between atoms: _80  and  _81
REMARK   36  A    between atoms: _86  and  _87
REMARK   37  A    between atoms: _89  and  _91
REMARK   38  A    between atoms: _91  and  _92
REMARK   39  A    between atoms: _91  and  _94
REMARK   40  A    between atoms: _94  and  _95
REMARK   41  A    between atoms: _97  and  _99
REMARK   42  A    between atoms: _99  and  _100
REMARK   43  A    between atoms: _103  and  _104
REMARK   44  A    between atoms: _109  and  _111
REMARK   45  A    between atoms: _111  and  _112
REMARK   46  A    between atoms: _111  and  _114
REMARK   47  A    between atoms: _117  and  _119
REMARK   48  A    between atoms: _119  and  _120
REMARK   49  A    between atoms: _123  and  _125
REMARK   50  A    between atoms: _125  and  _126
REMARK   51  A    between atoms: _125  and  _128
REMARK   52  A    between atoms: _128  and  _129
REMARK   53  A    between atoms: _132  and  _134
REMARK   54  A    between atoms: _134  and  _135
REMARK   55  A    between atoms: _134  and  _137
REMARK   56  A    between atoms: _137  and  _138
REMARK   57  A    between atoms: _138  and  _139
REMARK   58  A    between atoms: _139  and  _140
REMARK   59  A    between atoms: _140  and  _141
REMARK   60  A    between atoms: _145  and  _147
REMARK   61  A    between atoms: _147  and  _148
REMARK   62  A    between atoms: _147  and  _150
REMARK   63  A    between atoms: _150  and  _151
REMARK   64  A    between atoms: _156  and  _158
REMARK   65  A    between atoms: _158  and  _159
REMARK   66  A    between atoms: _158  and  _161
REMARK   67  A    between atoms: _164  and  _166
REMARK   68  A    between atoms: _166  and  _167
REMARK   69  A    between atoms: _166  and  _169
REMARK   70  A    between atoms: _169  and  _170
REMARK   71  A    between atoms: _170  and  _171
REMARK   72  A    between atoms: _174  and  _176
REMARK   73  A    between atoms: _176  and  _177
REMARK   74  A    between atoms: _176  and  _179
REMARK   75  A    between atoms: _179  and  _180
REMARK   76  A    between atoms: _183  and  _185
REMARK   77  A    between atoms: _185  and  _186
REMARK   78  A    between atoms: _185  and  _188
REMARK   79  A    between atoms: _188  and  _189
REMARK   80  A    between atoms: _192  and  _194
REMARK   81  A    between atoms: _194  and  _195
REMARK   82  A    between atoms: _194  and  _197
REMARK   83  A    between atoms: _197  and  _198
REMARK   84  A    between atoms: _198  and  _199
REMARK   85  A    between atoms: _199  and  _200
REMARK   86  A    between atoms: _209  and  _211
REMARK   87  A    between atoms: _211  and  _212
REMARK   88  A    between atoms: _211  and  _214
REMARK   89  A    between atoms: _214  and  _215
REMARK   90  A    between atoms: _218  and  _220
REMARK   91  A    between atoms: _220  and  _221
REMARK   92  A    between atoms: _220  and  _223
REMARK   93  A    between atoms: _223  and  _224
REMARK   94  A    between atoms: _227  and  _229
REMARK   95  A    between atoms: _229  and  _230
REMARK   96  A    between atoms: _229  and  _232
REMARK   97  A    between atoms: _232  and  _233
REMARK   98  A    between atoms: _236  and  _238
REMARK   99  A    between atoms: _238  and  _239
REMARK  100  A    between atoms: _238  and  _241
REMARK  101  A    between atoms: _241  and  _242
REMARK  102  A    between atoms: _245  and  _247
REMARK  103  A    between atoms: _247  and  _248
REMARK  104  A    between atoms: _247  and  _250
REMARK  105  A    between atoms: _250  and  _251
REMARK  106  A    between atoms: _251  and  _252
REMARK  107  A    between atoms: _255  and  _257
REMARK  108  A    between atoms: _257  and  _258
REMARK  109  A    between atoms: _257  and  _260
REMARK  110  A    between atoms: _260  and  _261
REMARK  111  A    between atoms: _261  and  _262
REMARK  112  A    between atoms: _262  and  _263
REMARK  113  A    between atoms: _273  and  _274
REMARK  114  A    between atoms: _279  and  _281
REMARK  115  A    between atoms: _281  and  _282
REMARK  116  A    between atoms: _281  and  _284
REMARK  117  A    between atoms: _284  and  _285
REMARK  118  A    between atoms: _285  and  _286
REMARK  119  A    between atoms: _290  and  _291
REMARK  120  A    between atoms: _296  and  _298
REMARK  121  A    between atoms: _298  and  _299
REMARK  122  A    between atoms: _298  and  _301
REMARK  123  A    between atoms: _304  and  _306
REMARK  124  A    between atoms: _306  and  _307
REMARK  125  A    between atoms: _306  and  _309
REMARK  126  A    between atoms: _309  and  _310
REMARK  127  A    between atoms: _310  and  _311
REMARK  128  A    between atoms: _316  and  _318
REMARK  129  A    between atoms: _318  and  _319
REMARK  130  A    between atoms: _318  and  _321
REMARK  131  A    between atoms: _321  and  _322
REMARK  132  A    between atoms: _325  and  _327
REMARK  133  A    between atoms: _327  and  _328
REMARK  134  A    between atoms: _327  and  _330
REMARK  135  A    between atoms: _330  and  _331
REMARK  136  A    between atoms: _334  and  _336
REMARK  137  A    between atoms: _336  and  _337
REMARK  138  A    between atoms: _336  and  _339
REMARK  139  A    between atoms: _339  and  _340
REMARK  140  A    between atoms: _346  and  _348
REMARK  141  A    between atoms: _348  and  _349
REMARK  142  A    between atoms: _348  and  _351
REMARK  143  A    between atoms: _351  and  _352
REMARK  144  A    between atoms: _355  and  _357
REMARK  145  A    between atoms: _357  and  _358
REMARK  146  A    between atoms: _357  and  _360
REMARK  147  A    between atoms: _360  and  _361
REMARK  148  A    between atoms: _367  and  _369
REMARK  149  A    between atoms: _369  and  _370
REMARK  150  A    between atoms: _369  and  _372
REMARK  151  A    between atoms: _372  and  _373
REMARK  152  A    between atoms: _376  and  _378
REMARK  153  A    between atoms: _378  and  _379
REMARK  154  A    between atoms: _378  and  _381
REMARK  155  A    between atoms: _381  and  _382
REMARK  156  A    between atoms: _385  and  _387
REMARK  157  A    between atoms: _387  and  _388
REMARK  158  A    between atoms: _387  and  _390
REMARK  159  A    between atoms: _390  and  _391
REMARK  160  A    between atoms: _391  and  _392
REMARK  161  A    between atoms: _395  and  _397
REMARK  162  A    between atoms: _397  and  _398
REMARK  163  A    between atoms: _397  and  _400
REMARK  164  A    between atoms: _400  and  _401
REMARK  165  A    between atoms: _406  and  _408
REMARK  166  A    between atoms: _408  and  _409
REMARK  167  A    between atoms: _408  and  _411
REMARK  168  A    between atoms: _411  and  _412
REMARK  169  A    between atoms: _415  and  _417
REMARK  170  A    between atoms: _417  and  _418
REMARK  171  A    between atoms: _417  and  _420
REMARK  172  A    between atoms: _420  and  _421
REMARK  173  A    between atoms: _424  and  _426
REMARK  174  A    between atoms: _426  and  _427
REMARK  175  A    between atoms: _426  and  _429
REMARK  176  A    between atoms: _429  and  _430
REMARK  177  A    between atoms: _433  and  _435
REMARK  178  A    between atoms: _435  and  _436
REMARK  179  A    between atoms: _435  and  _438
REMARK  180  A    between atoms: _438  and  _439
REMARK  181  A    between atoms: _442  and  _444
REMARK  182  A    between atoms: _444  and  _445
REMARK  183  A    between atoms: _444  and  _447
REMARK  184  A    between atoms: _447  and  _448
REMARK  185  A    between atoms: _451  and  _453
REMARK  186  A    between atoms: _453  and  _454
REMARK  187  A    between atoms: _453  and  _456
REMARK  188  A    between atoms: _456  and  _457
REMARK  189  A    between atoms: _457  and  _458
REMARK  190  A    between atoms: _458  and  _459
REMARK  191  A    between atoms: _459  and  _460
REMARK  192  A    between atoms: _464  and  _466
REMARK  193  A    between atoms: _466  and  _467
REMARK  194  A    between atoms: _466  and  _469
REMARK  195  A    between atoms: _469  and  _470
REMARK  196  A    between atoms: _473  and  _475
REMARK  197  A    between atoms: _475  and  _476
REMARK  198  A    between atoms: _475  and  _478
REMARK  199  A    between atoms: _478  and  _479
REMARK  200  A    between atoms: _482  and  _484
REMARK  201  A    between atoms: _484  and  _485
REMARK  202  A    between atoms: _484  and  _487
REMARK  203  A    between atoms: _487  and  _488
REMARK  204  A    between atoms: _491  and  _493
REMARK  205  A    between atoms: _493  and  _494
REMARK  206  A    between atoms: _493  and  _496
REMARK  207  A    between atoms: _496  and  _497
REMARK  208  A    between atoms: _503  and  _505
REMARK  209  A    between atoms: _505  and  _506
REMARK  210  A    between atoms: _508  and  _510
REMARK  211  A    between atoms: _510  and  _511
REMARK  212  A    between atoms: _510  and  _513
REMARK  213  A    between atoms: _513  and  _514
REMARK                            x       y       z     vdW  Elec       q    Type
REMARK                         _______ _______ _______ _____ _____    ______ ____
ROOT
ATOM      1  O   HOH     1     -14.666 -32.819  -3.746  0.00  0.00    +0.000 OA
ENDROOT
TORSDOF 0
REMARK  Name = ../refined-set-2016/4k18/4k18_pocket.pdb
REMARK  213 active torsions:
REMARK  status: ('A' for Active; 'I' for Inactive)
REMARK    1  A    between atoms: _1  and  _3
REMARK    2  A    between atoms: _3  and  _4
REMARK    3  A    between atoms: _3  and  _6
REMARK    4  A    between atoms: _6  and  _7
REMARK    5  A    between atoms: _10  and  _12
REMARK    6  A    between atoms: _12  and  _13
REMARK    7  A    between atoms: _12  and  _15
REMARK    8  A    between atoms: _15  and  _16
REMARK    9  A    between atoms: _19  and  _21
REMARK   10  A    between atoms: _21  and  _22
REMARK   11  A    between atoms: _24  and  _26
REMARK   12  A    between atoms: _26  and  _27
REMARK   13  A    between atoms: _26  and  _29
REMARK   14  A    between atoms: _29  and  _30
REMARK   15  A    between atoms: _32  and  _34
REMARK   16  A    between atoms: _34  and  _35
REMARK   17  A    between atoms: _37  and  _39
REMARK   18  A    between atoms: _39  and  _40
REMARK   19  A    between atoms: _42  and  _44
REMARK   20  A    between atoms: _44  and  _45
REMARK   21  A    between atoms: _44  and  _47
REMARK   22  A    between atoms: _47  and  _48
REMARK   23  A    between atoms: _54  and  _56
REMARK   24  A    between atoms: _56  and  _57
REMARK   25  A    between atoms: _59  and  _61
REMARK   26  A    between atoms: _61  and  _62
REMARK   27  A    between atoms: _61  and  _64
REMARK   28  A    between atoms: _64  and  _65
REMARK   29  A    between atoms: _67  and  _69
REMARK   30  A    between atoms: _69  and  _70
REMARK   31  A    between atoms: _69  and  _72
REMARK   32  A    between atoms: _75  and  _77
REMARK   33  A    between atoms: _77  and  _78
REMARK   34  A    between atoms: _77  and  _80
REMARK   35  A    between atoms: _80  and  _81
REMARK   36  A    between atoms: _86  and  _87
REMARK   37  A    between atoms: _89  and  _91
REMARK   38  A    between atoms: _91  and  _92
REMARK   39  A    between atoms: _91  and  _94
REMARK   40  A    between atoms: _94  and  _95
REMARK   41  A    between atoms: _97  and  _99
REMARK   42  A    between atoms: _99  and  _100
REMARK   43  A    between atoms: _103  and  _104
REMARK   44  A    between atoms: _109  and  _111
REMARK   45  A    between atoms: _111  and  _112
REMARK   46  A    between atoms: _111  and  _114
REMARK   47  A    between atoms: _117  and  _119
REMARK   48  A    between atoms: _119  and  _120
REMARK   49  A    between atoms: _123  and  _125
REMARK   50  A    between atoms: _125  and  _126
REMARK   51  A    between atoms: _125  and  _128
REMARK   52  A    between atoms: _128  and  _129
REMARK   53  A    between atoms: _132  and  _134
REMARK   54  A    between atoms: _134  and  _135
REMARK   55  A    between atoms: _134  and  _137
REMARK   56  A    between atoms: _137  and  _138
REMARK   57  A    between atoms: _138  and  _139
REMARK   58  A    between atoms: _139  and  _140
REMARK   59  A    between atoms: _140  and  _141
REMARK   60  A    between atoms: _145  and  _147
REMARK   61  A    between atoms: _147  and  _148
REMARK   62  A    between atoms: _147  and  _150
REMARK   63  A    between atoms: _150  and  _151
REMARK   64  A    between atoms: _156  and  _158
REMARK   65  A    between atoms: _158  and  _159
REMARK   66  A    between atoms: _158  and  _161
REMARK   67  A    between atoms: _164  and  _166
REMARK   68  A    between atoms: _166  and  _167
REMARK   69  A    between atoms: _166  and  _169
REMARK   70  A    between atoms: _169  and  _170
REMARK   71  A    between atoms: _170  and  _171
REMARK   72  A    between atoms: _174  and  _176
REMARK   73  A    between atoms: _176  and  _177
REMARK   74  A    between atoms: _176  and  _179
REMARK   75  A    between atoms: _179  and  _180
REMARK   76  A    between atoms: _183  and  _185
REMARK   77  A    between atoms: _185  and  _186
REMARK   78  A    between atoms: _185  and  _188
REMARK   79  A    between atoms: _188  and  _189
REMARK   80  A    between atoms: _192  and  _194
REMARK   81  A    between atoms: _194  and  _195
REMARK   82  A    between atoms: _194  and  _197
REMARK   83  A    between atoms: _197  and  _198
REMARK   84  A    between atoms: _198  and  _199
REMARK   85  A    between atoms: _199  and  _200
REMARK   86  A    between atoms: _209  and  _211
REMARK   87  A    between atoms: _211  and  _212
REMARK   88  A    between atoms: _211  and  _214
REMARK   89  A    between atoms: _214  and  _215
REMARK   90  A    between atoms: _218  and  _220
REMARK   91  A    between atoms: _220  and  _221
REMARK   92  A    between atoms: _220  and  _223
REMARK   93  A    between atoms: _223  and  _224
REMARK   94  A    between atoms: _227  and  _229
REMARK   95  A    between atoms: _229  and  _230
REMARK   96  A    between atoms: _229  and  _232
REMARK   97  A    between atoms: _232  and  _233
REMARK   98  A    between atoms: _236  and  _238
REMARK   99  A    between atoms: _238  and  _239
REMARK  100  A    between atoms: _238  and  _241
REMARK  101  A    between atoms: _241  and  _242
REMARK  102  A    between atoms: _245  and  _247
REMARK  103  A    between atoms: _247  and  _248
REMARK  104  A    between atoms: _247  and  _250
REMARK  105  A    between atoms: _250  and  _251
REMARK  106  A    between atoms: _251  and  _252
REMARK  107  A    between atoms: _255  and  _257
REMARK  108  A    between atoms: _257  and  _258
REMARK  109  A    between atoms: _257  and  _260
REMARK  110  A    between atoms: _260  and  _261
REMARK  111  A    between atoms: _261  and  _262
REMARK  112  A    between atoms: _262  and  _263
REMARK  113  A    between atoms: _273  and  _274
REMARK  114  A    between atoms: _279  and  _281
REMARK  115  A    between atoms: _281  and  _282
REMARK  116  A    between atoms: _281  and  _284
REMARK  117  A    between atoms: _284  and  _285
REMARK  118  A    between atoms: _285  and  _286
REMARK  119  A    between atoms: _290  and  _291
REMARK  120  A    between atoms: _296  and  _298
REMARK  121  A    between atoms: _298  and  _299
REMARK  122  A    between atoms: _298  and  _301
REMARK  123  A    between atoms: _304  and  _306
REMARK  124  A    between atoms: _306  and  _307
REMARK  125  A    between atoms: _306  and  _309
REMARK  126  A    between atoms: _309  and  _310
REMARK  127  A    between atoms: _310  and  _311
REMARK  128  A    between atoms: _316  and  _318
REMARK  129  A    between atoms: _318  and  _319
REMARK  130  A    between atoms: _318  and  _321
REMARK  131  A    between atoms: _321  and  _322
REMARK  132  A    between atoms: _325  and  _327
REMARK  133  A    between atoms: _327  and  _328
REMARK  134  A    between atoms: _327  and  _330
REMARK  135  A    between atoms: _330  and  _331
REMARK  136  A    between atoms: _334  and  _336
REMARK  137  A    between atoms: _336  and  _337
REMARK  138  A    between atoms: _336  and  _339
REMARK  139  A    between atoms: _339  and  _340
REMARK  140  A    between atoms: _346  and  _348
REMARK  141  A    between atoms: _348  and  _349
REMARK  142  A    between atoms: _348  and  _351
REMARK  143  A    between atoms: _351  and  _352
REMARK  144  A    between atoms: _355  and  _357
REMARK  145  A    between atoms: _357  and  _358
REMARK  146  A    between atoms: _357  and  _360
REMARK  147  A    between atoms: _360  and  _361
REMARK  148  A    between atoms: _367  and  _369
REMARK  149  A    between atoms: _369  and  _370
REMARK  150  A    between atoms: _369  and  _372
REMARK  151  A    between atoms: _372  and  _373
REMARK  152  A    between atoms: _376  and  _378
REMARK  153  A    between atoms: _378  and  _379
REMARK  154  A    between atoms: _378  and  _381
REMARK  155  A    between atoms: _381  and  _382
REMARK  156  A    between atoms: _385  and  _387
REMARK  157  A    between atoms: _387  and  _388
REMARK  158  A    between atoms: _387  and  _390
REMARK  159  A    between atoms: _390  and  _391
REMARK  160  A    between atoms: _391  and  _392
REMARK  161  A    between atoms: _395  and  _397
REMARK  162  A    between atoms: _397  and  _398
REMARK  163  A    between atoms: _397  and  _400
REMARK  164  A    between atoms: _400  and  _401
REMARK  165  A    between atoms: _406  and  _408
REMARK  166  A    between atoms: _408  and  _409
REMARK  167  A    between atoms: _408  and  _411
REMARK  168  A    between atoms: _411  and  _412
REMARK  169  A    between atoms: _415  and  _417
REMARK  170  A    between atoms: _417  and  _418
REMARK  171  A    between atoms: _417  and  _420
REMARK  172  A    between atoms: _420  and  _421
REMARK  173  A    between atoms: _424  and  _426
REMARK  174  A    between atoms: _426  and  _427
REMARK  175  A    between atoms: _426  and  _429
REMARK  176  A    between atoms: _429  and  _430
REMARK  177  A    between atoms: _433  and  _435
REMARK  178  A    between atoms: _435  and  _436
REMARK  179  A    between atoms: _435  and  _438
REMARK  180  A    between atoms: _438  and  _439
REMARK  181  A    between atoms: _442  and  _444
REMARK  182  A    between atoms: _444  and  _445
REMARK  183  A    between atoms: _444  and  _447
REMARK  184  A    between atoms: _447  and  _448
REMARK  185  A    between atoms: _451  and  _453
REMARK  186  A    between atoms: _453  and  _454
REMARK  187  A    between atoms: _453  and  _456
REMARK  188  A    between atoms: _456  and  _457
REMARK  189  A    between atoms: _457  and  _458
REMARK  190  A    between atoms: _458  and  _459
REMARK  191  A    between atoms: _459  and  _460
REMARK  192  A    between atoms: _464  and  _466
REMARK  193  A    between atoms: _466  and  _467
REMARK  194  A    between atoms: _466  and  _469
REMARK  195  A    between atoms: _469  and  _470
REMARK  196  A    between atoms: _473  and  _475
REMARK  197  A    between atoms: _475  and  _476
REMARK  198  A    between atoms: _475  and  _478
REMARK  199  A    between atoms: _478  and  _479
REMARK  200  A    between atoms: _482  and  _484
REMARK  201  A    between atoms: _484  and  _485
REMARK  202  A    between atoms: _484  and  _487
REMARK  203  A    between atoms: _487  and  _488
REMARK  204  A    between atoms: _491  and  _493
REMARK  205  A    between atoms: _493  and  _494
REMARK  206  A    between atoms: _493  and  _496
REMARK  207  A    between atoms: _496  and  _497
REMARK  208  A    between atoms: _503  and  _505
REMARK  209  A    between atoms: _505  and  _506
REMARK  210  A    between atoms: _508  and  _510
REMARK  211  A    between atoms: _510  and  _511
REMARK  212  A    between atoms: _510  and  _513
REMARK  213  A    between atoms: _513  and  _514
REMARK                            x       y       z     vdW  Elec       q    Type
REMARK                         _______ _______ _______ _____ _____    ______ ____
ROOT
ATOM      1  O   HOH     1      -8.579 -32.276  -1.381  0.00  0.00    +0.000 OA
ENDROOT
TORSDOF 0
REMARK  Name = ../refined-set-2016/4k18/4k18_pocket.pdb
REMARK  213 active torsions:
REMARK  status: ('A' for Active; 'I' for Inactive)
REMARK    1  A    between atoms: _1  and  _3
REMARK    2  A    between atoms: _3  and  _4
REMARK    3  A    between atoms: _3  and  _6
REMARK    4  A    between atoms: _6  and  _7
REMARK    5  A    between atoms: _10  and  _12
REMARK    6  A    between atoms: _12  and  _13
REMARK    7  A    between atoms: _12  and  _15
REMARK    8  A    between atoms: _15  and  _16
REMARK    9  A    between atoms: _19  and  _21
REMARK   10  A    between atoms: _21  and  _22
REMARK   11  A    between atoms: _24  and  _26
REMARK   12  A    between atoms: _26  and  _27
REMARK   13  A    between atoms: _26  and  _29
REMARK   14  A    between atoms: _29  and  _30
REMARK   15  A    between atoms: _32  and  _34
REMARK   16  A    between atoms: _34  and  _35
REMARK   17  A    between atoms: _37  and  _39
REMARK   18  A    between atoms: _39  and  _40
REMARK   19  A    between atoms: _42  and  _44
REMARK   20  A    between atoms: _44  and  _45
REMARK   21  A    between atoms: _44  and  _47
REMARK   22  A    between atoms: _47  and  _48
REMARK   23  A    between atoms: _54  and  _56
REMARK   24  A    between atoms: _56  and  _57
REMARK   25  A    between atoms: _59  and  _61
REMARK   26  A    between atoms: _61  and  _62
REMARK   27  A    between atoms: _61  and  _64
REMARK   28  A    between atoms: _64  and  _65
REMARK   29  A    between atoms: _67  and  _69
REMARK   30  A    between atoms: _69  and  _70
REMARK   31  A    between atoms: _69  and  _72
REMARK   32  A    between atoms: _75  and  _77
REMARK   33  A    between atoms: _77  and  _78
REMARK   34  A    between atoms: _77  and  _80
REMARK   35  A    between atoms: _80  and  _81
REMARK   36  A    between atoms: _86  and  _87
REMARK   37  A    between atoms: _89  and  _91
REMARK   38  A    between atoms: _91  and  _92
REMARK   39  A    between atoms: _91  and  _94
REMARK   40  A    between atoms: _94  and  _95
REMARK   41  A    between atoms: _97  and  _99
REMARK   42  A    between atoms: _99  and  _100
REMARK   43  A    between atoms: _103  and  _104
REMARK   44  A    between atoms: _109  and  _111
REMARK   45  A    between atoms: _111  and  _112
REMARK   46  A    between atoms: _111  and  _114
REMARK   47  A    between atoms: _117  and  _119
REMARK   48  A    between atoms: _119  and  _120
REMARK   49  A    between atoms: _123  and  _125
REMARK   50  A    between atoms: _125  and  _126
REMARK   51  A    between atoms: _125  and  _128
REMARK   52  A    between atoms: _128  and  _129
REMARK   53  A    between atoms: _132  and  _134
REMARK   54  A    between atoms: _134  and  _135
REMARK   55  A    between atoms: _134  and  _137
REMARK   56  A    between atoms: _137  and  _138
REMARK   57  A    between atoms: _138  and  _139
REMARK   58  A    between atoms: _139  and  _140
REMARK   59  A    between atoms: _140  and  _141
REMARK   60  A    between atoms: _145  and  _147
REMARK   61  A    between atoms: _147  and  _148
REMARK   62  A    between atoms: _147  and  _150
REMARK   63  A    between atoms: _150  and  _151
REMARK   64  A    between atoms: _156  and  _158
REMARK   65  A    between atoms: _158  and  _159
REMARK   66  A    between atoms: _158  and  _161
REMARK   67  A    between atoms: _164  and  _166
REMARK   68  A    between atoms: _166  and  _167
REMARK   69  A    between atoms: _166  and  _169
REMARK   70  A    between atoms: _169  and  _170
REMARK   71  A    between atoms: _170  and  _171
REMARK   72  A    between atoms: _174  and  _176
REMARK   73  A    between atoms: _176  and  _177
REMARK   74  A    between atoms: _176  and  _179
REMARK   75  A    between atoms: _179  and  _180
REMARK   76  A    between atoms: _183  and  _185
REMARK   77  A    between atoms: _185  and  _186
REMARK   78  A    between atoms: _185  and  _188
REMARK   79  A    between atoms: _188  and  _189
REMARK   80  A    between atoms: _192  and  _194
REMARK   81  A    between atoms: _194  and  _195
REMARK   82  A    between atoms: _194  and  _197
REMARK   83  A    between atoms: _197  and  _198
REMARK   84  A    between atoms: _198  and  _199
REMARK   85  A    between atoms: _199  and  _200
REMARK   86  A    between atoms: _209  and  _211
REMARK   87  A    between atoms: _211  and  _212
REMARK   88  A    between atoms: _211  and  _214
REMARK   89  A    between atoms: _214  and  _215
REMARK   90  A    between atoms: _218  and  _220
REMARK   91  A    between atoms: _220  and  _221
REMARK   92  A    between atoms: _220  and  _223
REMARK   93  A    between atoms: _223  and  _224
REMARK   94  A    between atoms: _227  and  _229
REMARK   95  A    between atoms: _229  and  _230
REMARK   96  A    between atoms: _229  and  _232
REMARK   97  A    between atoms: _232  and  _233
REMARK   98  A    between atoms: _236  and  _238
REMARK   99  A    between atoms: _238  and  _239
REMARK  100  A    between atoms: _238  and  _241
REMARK  101  A    between atoms: _241  and  _242
REMARK  102  A    between atoms: _245  and  _247
REMARK  103  A    between atoms: _247  and  _248
REMARK  104  A    between atoms: _247  and  _250
REMARK  105  A    between atoms: _250  and  _251
REMARK  106  A    between atoms: _251  and  _252
REMARK  107  A    between atoms: _255  and  _257
REMARK  108  A    between atoms: _257  and  _258
REMARK  109  A    between atoms: _257  and  _260
REMARK  110  A    between atoms: _260  and  _261
REMARK  111  A    between atoms: _261  and  _262
REMARK  112  A    between atoms: _262  and  _263
REMARK  113  A    between atoms: _273  and  _274
REMARK  114  A    between atoms: _279  and  _281
REMARK  115  A    between atoms: _281  and  _282
REMARK  116  A    between atoms: _281  and  _284
REMARK  117  A    between atoms: _284  and  _285
REMARK  118  A    between atoms: _285  and  _286
REMARK  119  A    between atoms: _290  and  _291
REMARK  120  A    between atoms: _296  and  _298
REMARK  121  A    between atoms: _298  and  _299
REMARK  122  A    between atoms: _298  and  _301
REMARK  123  A    between atoms: _304  and  _306
REMARK  124  A    between atoms: _306  and  _307
REMARK  125  A    between atoms: _306  and  _309
REMARK  126  A    between atoms: _309  and  _310
REMARK  127  A    between atoms: _310  and  _311
REMARK  128  A    between atoms: _316  and  _318
REMARK  129  A    between atoms: _318  and  _319
REMARK  130  A    between atoms: _318  and  _321
REMARK  131  A    between atoms: _321  and  _322
REMARK  132  A    between atoms: _325  and  _327
REMARK  133  A    between atoms: _327  and  _328
REMARK  134  A    between atoms: _327  and  _330
REMARK  135  A    between atoms: _330  and  _331
REMARK  136  A    between atoms: _334  and  _336
REMARK  137  A    between atoms: _336  and  _337
REMARK  138  A    between atoms: _336  and  _339
REMARK  139  A    between atoms: _339  and  _340
REMARK  140  A    between atoms: _346  and  _348
REMARK  141  A    between atoms: _348  and  _349
REMARK  142  A    between atoms: _348  and  _351
REMARK  143  A    between atoms: _351  and  _352
REMARK  144  A    between atoms: _355  and  _357
REMARK  145  A    between atoms: _357  and  _358
REMARK  146  A    between atoms: _357  and  _360
REMARK  147  A    between atoms: _360  and  _361
REMARK  148  A    between atoms: _367  and  _369
REMARK  149  A    between atoms: _369  and  _370
REMARK  150  A    between atoms: _369  and  _372
REMARK  151  A    between atoms: _372  and  _373
REMARK  152  A    between atoms: _376  and  _378
REMARK  153  A    between atoms: _378  and  _379
REMARK  154  A    between atoms: _378  and  _381
REMARK  155  A    between atoms: _381  and  _382
REMARK  156  A    between atoms: _385  and  _387
REMARK  157  A    between atoms: _387  and  _388
REMARK  158  A    between atoms: _387  and  _390
REMARK  159  A    between atoms: _390  and  _391
REMARK  160  A    between atoms: _391  and  _392
REMARK  161  A    between atoms: _395  and  _397
REMARK  162  A    between atoms: _397  and  _398
REMARK  163  A    between atoms: _397  and  _400
REMARK  164  A    between atoms: _400  and  _401
REMARK  165  A    between atoms: _406  and  _408
REMARK  166  A    between atoms: _408  and  _409
REMARK  167  A    between atoms: _408  and  _411
REMARK  168  A    between atoms: _411  and  _412
REMARK  169  A    between atoms: _415  and  _417
REMARK  170  A    between atoms: _417  and  _418
REMARK  171  A    between atoms: _417  and  _420
REMARK  172  A    between atoms: _420  and  _421
REMARK  173  A    between atoms: _424  and  _426
REMARK  174  A    between atoms: _426  and  _427
REMARK  175  A    between atoms: _426  and  _429
REMARK  176  A    between atoms: _429  and  _430
REMARK  177  A    between atoms: _433  and  _435
REMARK  178  A    between atoms: _435  and  _436
REMARK  179  A    between atoms: _435  and  _438
REMARK  180  A    between atoms: _438  and  _439
REMARK  181  A    between atoms: _442  and  _444
REMARK  182  A    between atoms: _444  and  _445
REMARK  183  A    between atoms: _444  and  _447
REMARK  184  A    between atoms: _447  and  _448
REMARK  185  A    between atoms: _451  and  _453
REMARK  186  A    between atoms: _453  and  _454
REMARK  187  A    between atoms: _453  and  _456
REMARK  188  A    between atoms: _456  and  _457
REMARK  189  A    between atoms: _457  and  _458
REMARK  190  A    between atoms: _458  and  _459
REMARK  191  A    between atoms: _459  and  _460
REMARK  192  A    between atoms: _464  and  _466
REMARK  193  A    between atoms: _466  and  _467
REMARK  194  A    between atoms: _466  and  _469
REMARK  195  A    between atoms: _469  and  _470
REMARK  196  A    between atoms: _473  and  _475
REMARK  197  A    between atoms: _475  and  _476
REMARK  198  A    between atoms: _475  and  _478
REMARK  199  A    between atoms: _478  and  _479
REMARK  200  A    between atoms: _482  and  _484
REMARK  201  A    between atoms: _484  and  _485
REMARK  202  A    between atoms: _484  and  _487
REMARK  203  A    between atoms: _487  and  _488
REMARK  204  A    between atoms: _491  and  _493
REMARK  205  A    between atoms: _493  and  _494
REMARK  206  A    between atoms: _493  and  _496
REMARK  207  A    between atoms: _496  and  _497
REMARK  208  A    between atoms: _503  and  _505
REMARK  209  A    between atoms: _505  and  _506
REMARK  210  A    between atoms: _508  and  _510
REMARK  211  A    between atoms: _510  and  _511
REMARK  212  A    between atoms: _510  and  _513
REMARK  213  A    between atoms: _513  and  _514
REMARK                            x       y       z     vdW  Elec       q    Type
REMARK                         _______ _______ _______ _____ _____    ______ ____
ROOT
ATOM      1  O   HOH     1     -16.135 -35.231  -2.961  0.00  0.00    +0.000 OA
ENDROOT
TORSDOF 0
REMARK  Name = ../refined-set-2016/4k18/4k18_pocket.pdb
REMARK  213 active torsions:
REMARK  status: ('A' for Active; 'I' for Inactive)
REMARK    1  A    between atoms: _1  and  _3
REMARK    2  A    between atoms: _3  and  _4
REMARK    3  A    between atoms: _3  and  _6
REMARK    4  A    between atoms: _6  and  _7
REMARK    5  A    between atoms: _10  and  _12
REMARK    6  A    between atoms: _12  and  _13
REMARK    7  A    between atoms: _12  and  _15
REMARK    8  A    between atoms: _15  and  _16
REMARK    9  A    between atoms: _19  and  _21
REMARK   10  A    between atoms: _21  and  _22
REMARK   11  A    between atoms: _24  and  _26
REMARK   12  A    between atoms: _26  and  _27
REMARK   13  A    between atoms: _26  and  _29
REMARK   14  A    between atoms: _29  and  _30
REMARK   15  A    between atoms: _32  and  _34
REMARK   16  A    between atoms: _34  and  _35
REMARK   17  A    between atoms: _37  and  _39
REMARK   18  A    between atoms: _39  and  _40
REMARK   19  A    between atoms: _42  and  _44
REMARK   20  A    between atoms: _44  and  _45
REMARK   21  A    between atoms: _44  and  _47
REMARK   22  A    between atoms: _47  and  _48
REMARK   23  A    between atoms: _54  and  _56
REMARK   24  A    between atoms: _56  and  _57
REMARK   25  A    between atoms: _59  and  _61
REMARK   26  A    between atoms: _61  and  _62
REMARK   27  A    between atoms: _61  and  _64
REMARK   28  A    between atoms: _64  and  _65
REMARK   29  A    between atoms: _67  and  _69
REMARK   30  A    between atoms: _69  and  _70
REMARK   31  A    between atoms: _69  and  _72
REMARK   32  A    between atoms: _75  and  _77
REMARK   33  A    between atoms: _77  and  _78
REMARK   34  A    between atoms: _77  and  _80
REMARK   35  A    between atoms: _80  and  _81
REMARK   36  A    between atoms: _86  and  _87
REMARK   37  A    between atoms: _89  and  _91
REMARK   38  A    between atoms: _91  and  _92
REMARK   39  A    between atoms: _91  and  _94
REMARK   40  A    between atoms: _94  and  _95
REMARK   41  A    between atoms: _97  and  _99
REMARK   42  A    between atoms: _99  and  _100
REMARK   43  A    between atoms: _103  and  _104
REMARK   44  A    between atoms: _109  and  _111
REMARK   45  A    between atoms: _111  and  _112
REMARK   46  A    between atoms: _111  and  _114
REMARK   47  A    between atoms: _117  and  _119
REMARK   48  A    between atoms: _119  and  _120
REMARK   49  A    between atoms: _123  and  _125
REMARK   50  A    between atoms: _125  and  _126
REMARK   51  A    between atoms: _125  and  _128
REMARK   52  A    between atoms: _128  and  _129
REMARK   53  A    between atoms: _132  and  _134
REMARK   54  A    between atoms: _134  and  _135
REMARK   55  A    between atoms: _134  and  _137
REMARK   56  A    between atoms: _137  and  _138
REMARK   57  A    between atoms: _138  and  _139
REMARK   58  A    between atoms: _139  and  _140
REMARK   59  A    between atoms: _140  and  _141
REMARK   60  A    between atoms: _145  and  _147
REMARK   61  A    between atoms: _147  and  _148
REMARK   62  A    between atoms: _147  and  _150
REMARK   63  A    between atoms: _150  and  _151
REMARK   64  A    between atoms: _156  and  _158
REMARK   65  A    between atoms: _158  and  _159
REMARK   66  A    between atoms: _158  and  _161
REMARK   67  A    between atoms: _164  and  _166
REMARK   68  A    between atoms: _166  and  _167
REMARK   69  A    between atoms: _166  and  _169
REMARK   70  A    between atoms: _169  and  _170
REMARK   71  A    between atoms: _170  and  _171
REMARK   72  A    between atoms: _174  and  _176
REMARK   73  A    between atoms: _176  and  _177
REMARK   74  A    between atoms: _176  and  _179
REMARK   75  A    between atoms: _179  and  _180
REMARK   76  A    between atoms: _183  and  _185
REMARK   77  A    between atoms: _185  and  _186
REMARK   78  A    between atoms: _185  and  _188
REMARK   79  A    between atoms: _188  and  _189
REMARK   80  A    between atoms: _192  and  _194
REMARK   81  A    between atoms: _194  and  _195
REMARK   82  A    between atoms: _194  and  _197
REMARK   83  A    between atoms: _197  and  _198
REMARK   84  A    between atoms: _198  and  _199
REMARK   85  A    between atoms: _199  and  _200
REMARK   86  A    between atoms: _209  and  _211
REMARK   87  A    between atoms: _211  and  _212
REMARK   88  A    between atoms: _211  and  _214
REMARK   89  A    between atoms: _214  and  _215
REMARK   90  A    between atoms: _218  and  _220
REMARK   91  A    between atoms: _220  and  _221
REMARK   92  A    between atoms: _220  and  _223
REMARK   93  A    between atoms: _223  and  _224
REMARK   94  A    between atoms: _227  and  _229
REMARK   95  A    between atoms: _229  and  _230
REMARK   96  A    between atoms: _229  and  _232
REMARK   97  A    between atoms: _232  and  _233
REMARK   98  A    between atoms: _236  and  _238
REMARK   99  A    between atoms: _238  and  _239
REMARK  100  A    between atoms: _238  and  _241
REMARK  101  A    between atoms: _241  and  _242
REMARK  102  A    between atoms: _245  and  _247
REMARK  103  A    between atoms: _247  and  _248
REMARK  104  A    between atoms: _247  and  _250
REMARK  105  A    between atoms: _250  and  _251
REMARK  106  A    between atoms: _251  and  _252
REMARK  107  A    between atoms: _255  and  _257
REMARK  108  A    between atoms: _257  and  _258
REMARK  109  A    between atoms: _257  and  _260
REMARK  110  A    between atoms: _260  and  _261
REMARK  111  A    between atoms: _261  and  _262
REMARK  112  A    between atoms: _262  and  _263
REMARK  113  A    between atoms: _273  and  _274
REMARK  114  A    between atoms: _279  and  _281
REMARK  115  A    between atoms: _281  and  _282
REMARK  116  A    between atoms: _281  and  _284
REMARK  117  A    between atoms: _284  and  _285
REMARK  118  A    between atoms: _285  and  _286
REMARK  119  A    between atoms: _290  and  _291
REMARK  120  A    between atoms: _296  and  _298
REMARK  121  A    between atoms: _298  and  _299
REMARK  122  A    between atoms: _298  and  _301
REMARK  123  A    between atoms: _304  and  _306
REMARK  124  A    between atoms: _306  and  _307
REMARK  125  A    between atoms: _306  and  _309
REMARK  126  A    between atoms: _309  and  _310
REMARK  127  A    between atoms: _310  and  _311
REMARK  128  A    between atoms: _316  and  _318
REMARK  129  A    between atoms: _318  and  _319
REMARK  130  A    between atoms: _318  and  _321
REMARK  131  A    between atoms: _321  and  _322
REMARK  132  A    between atoms: _325  and  _327
REMARK  133  A    between atoms: _327  and  _328
REMARK  134  A    between atoms: _327  and  _330
REMARK  135  A    between atoms: _330  and  _331
REMARK  136  A    between atoms: _334  and  _336
REMARK  137  A    between atoms: _336  and  _337
REMARK  138  A    between atoms: _336  and  _339
REMARK  139  A    between atoms: _339  and  _340
REMARK  140  A    between atoms: _346  and  _348
REMARK  141  A    between atoms: _348  and  _349
REMARK  142  A    between atoms: _348  and  _351
REMARK  143  A    between atoms: _351  and  _352
REMARK  144  A    between atoms: _355  and  _357
REMARK  145  A    between atoms: _357  and  _358
REMARK  146  A    between atoms: _357  and  _360
REMARK  147  A    between atoms: _360  and  _361
REMARK  148  A    between atoms: _367  and  _369
REMARK  149  A    between atoms: _369  and  _370
REMARK  150  A    between atoms: _369  and  _372
REMARK  151  A    between atoms: _372  and  _373
REMARK  152  A    between atoms: _376  and  _378
REMARK  153  A    between atoms: _378  and  _379
REMARK  154  A    between atoms: _378  and  _381
REMARK  155  A    between atoms: _381  and  _382
REMARK  156  A    between atoms: _385  and  _387
REMARK  157  A    between atoms: _387  and  _388
REMARK  158  A    between atoms: _387  and  _390
REMARK  159  A    between atoms: _390  and  _391
REMARK  160  A    between atoms: _391  and  _392
REMARK  161  A    between atoms: _395  and  _397
REMARK  162  A    between atoms: _397  and  _398
REMARK  163  A    between atoms: _397  and  _400
REMARK  164  A    between atoms: _400  and  _401
REMARK  165  A    between atoms: _406  and  _408
REMARK  166  A    between atoms: _408  and  _409
REMARK  167  A    between atoms: _408  and  _411
REMARK  168  A    between atoms: _411  and  _412
REMARK  169  A    between atoms: _415  and  _417
REMARK  170  A    between atoms: _417  and  _418
REMARK  171  A    between atoms: _417  and  _420
REMARK  172  A    between atoms: _420  and  _421
REMARK  173  A    between atoms: _424  and  _426
REMARK  174  A    between atoms: _426  and  _427
REMARK  175  A    between atoms: _426  and  _429
REMARK  176  A    between atoms: _429  and  _430
REMARK  177  A    between atoms: _433  and  _435
REMARK  178  A    between atoms: _435  and  _436
REMARK  179  A    between atoms: _435  and  _438
REMARK  180  A    between atoms: _438  and  _439
REMARK  181  A    between atoms: _442  and  _444
REMARK  182  A    between atoms: _444  and  _445
REMARK  183  A    between atoms: _444  and  _447
REMARK  184  A    between atoms: _447  and  _448
REMARK  185  A    between atoms: _451  and  _453
REMARK  186  A    between atoms: _453  and  _454
REMARK  187  A    between atoms: _453  and  _456
REMARK  188  A    between atoms: _456  and  _457
REMARK  189  A    between atoms: _457  and  _458
REMARK  190  A    between atoms: _458  and  _459
REMARK  191  A    between atoms: _459  and  _460
REMARK  192  A    between atoms: _464  and  _466
REMARK  193  A    between atoms: _466  and  _467
REMARK  194  A    between atoms: _466  and  _469
REMARK  195  A    between atoms: _469  and  _470
REMARK  196  A    between atoms: _473  and  _475
REMARK  197  A    between atoms: _475  and  _476
REMARK  198  A    between atoms: _475  and  _478
REMARK  199  A    between atoms: _478  and  _479
REMARK  200  A    between atoms: _482  and  _484
REMARK  201  A    between atoms: _484  and  _485
REMARK  202  A    between atoms: _484  and  _487
REMARK  203  A    between atoms: _487  and  _488
REMARK  204  A    between atoms: _491  and  _493
REMARK  205  A    between atoms: _493  and  _494
REMARK  206  A    between atoms: _493  and  _496
REMARK  207  A    between atoms: _496  and  _497
REMARK  208  A    between atoms: _503  and  _505
REMARK  209  A    between atoms: _505  and  _506
REMARK  210  A    between atoms: _508  and  _510
REMARK  211  A    between atoms: _510  and  _511
REMARK  212  A    between atoms: _510  and  _513
REMARK  213  A    between atoms: _513  and  _514
REMARK                            x       y       z     vdW  Elec       q    Type
REMARK                         _______ _______ _______ _____ _____    ______ ____
ROOT
ATOM      1  O   HOH     1     -14.604 -27.097  -1.355  0.00  0.00    +0.000 OA
ENDROOT
TORSDOF 0
REMARK  Name = ../refined-set-2016/4k18/4k18_pocket.pdb
REMARK  213 active torsions:
REMARK  status: ('A' for Active; 'I' for Inactive)
REMARK    1  A    between atoms: _1  and  _3
REMARK    2  A    between atoms: _3  and  _4
REMARK    3  A    between atoms: _3  and  _6
REMARK    4  A    between atoms: _6  and  _7
REMARK    5  A    between atoms: _10  and  _12
REMARK    6  A    between atoms: _12  and  _13
REMARK    7  A    between atoms: _12  and  _15
REMARK    8  A    between atoms: _15  and  _16
REMARK    9  A    between atoms: _19  and  _21
REMARK   10  A    between atoms: _21  and  _22
REMARK   11  A    between atoms: _24  and  _26
REMARK   12  A    between atoms: _26  and  _27
REMARK   13  A    between atoms: _26  and  _29
REMARK   14  A    between atoms: _29  and  _30
REMARK   15  A    between atoms: _32  and  _34
REMARK   16  A    between atoms: _34  and  _35
REMARK   17  A    between atoms: _37  and  _39
REMARK   18  A    between atoms: _39  and  _40
REMARK   19  A    between atoms: _42  and  _44
REMARK   20  A    between atoms: _44  and  _45
REMARK   21  A    between atoms: _44  and  _47
REMARK   22  A    between atoms: _47  and  _48
REMARK   23  A    between atoms: _54  and  _56
REMARK   24  A    between atoms: _56  and  _57
REMARK   25  A    between atoms: _59  and  _61
REMARK   26  A    between atoms: _61  and  _62
REMARK   27  A    between atoms: _61  and  _64
REMARK   28  A    between atoms: _64  and  _65
REMARK   29  A    between atoms: _67  and  _69
REMARK   30  A    between atoms: _69  and  _70
REMARK   31  A    between atoms: _69  and  _72
REMARK   32  A    between atoms: _75  and  _77
REMARK   33  A    between atoms: _77  and  _78
REMARK   34  A    between atoms: _77  and  _80
REMARK   35  A    between atoms: _80  and  _81
REMARK   36  A    between atoms: _86  and  _87
REMARK   37  A    between atoms: _89  and  _91
REMARK   38  A    between atoms: _91  and  _92
REMARK   39  A    between atoms: _91  and  _94
REMARK   40  A    between atoms: _94  and  _95
REMARK   41  A    between atoms: _97  and  _99
REMARK   42  A    between atoms: _99  and  _100
REMARK   43  A    between atoms: _103  and  _104
REMARK   44  A    between atoms: _109  and  _111
REMARK   45  A    between atoms: _111  and  _112
REMARK   46  A    between atoms: _111  and  _114
REMARK   47  A    between atoms: _117  and  _119
REMARK   48  A    between atoms: _119  and  _120
REMARK   49  A    between atoms: _123  and  _125
REMARK   50  A    between atoms: _125  and  _126
REMARK   51  A    between atoms: _125  and  _128
REMARK   52  A    between atoms: _128  and  _129
REMARK   53  A    between atoms: _132  and  _134
REMARK   54  A    between atoms: _134  and  _135
REMARK   55  A    between atoms: _134  and  _137
REMARK   56  A    between atoms: _137  and  _138
REMARK   57  A    between atoms: _138  and  _139
REMARK   58  A    between atoms: _139  and  _140
REMARK   59  A    between atoms: _140  and  _141
REMARK   60  A    between atoms: _145  and  _147
REMARK   61  A    between atoms: _147  and  _148
REMARK   62  A    between atoms: _147  and  _150
REMARK   63  A    between atoms: _150  and  _151
REMARK   64  A    between atoms: _156  and  _158
REMARK   65  A    between atoms: _158  and  _159
REMARK   66  A    between atoms: _158  and  _161
REMARK   67  A    between atoms: _164  and  _166
REMARK   68  A    between atoms: _166  and  _167
REMARK   69  A    between atoms: _166  and  _169
REMARK   70  A    between atoms: _169  and  _170
REMARK   71  A    between atoms: _170  and  _171
REMARK   72  A    between atoms: _174  and  _176
REMARK   73  A    between atoms: _176  and  _177
REMARK   74  A    between atoms: _176  and  _179
REMARK   75  A    between atoms: _179  and  _180
REMARK   76  A    between atoms: _183  and  _185
REMARK   77  A    between atoms: _185  and  _186
REMARK   78  A    between atoms: _185  and  _188
REMARK   79  A    between atoms: _188  and  _189
REMARK   80  A    between atoms: _192  and  _194
REMARK   81  A    between atoms: _194  and  _195
REMARK   82  A    between atoms: _194  and  _197
REMARK   83  A    between atoms: _197  and  _198
REMARK   84  A    between atoms: _198  and  _199
REMARK   85  A    between atoms: _199  and  _200
REMARK   86  A    between atoms: _209  and  _211
REMARK   87  A    between atoms: _211  and  _212
REMARK   88  A    between atoms: _211  and  _214
REMARK   89  A    between atoms: _214  and  _215
REMARK   90  A    between atoms: _218  and  _220
REMARK   91  A    between atoms: _220  and  _221
REMARK   92  A    between atoms: _220  and  _223
REMARK   93  A    between atoms: _223  and  _224
REMARK   94  A    between atoms: _227  and  _229
REMARK   95  A    between atoms: _229  and  _230
REMARK   96  A    between atoms: _229  and  _232
REMARK   97  A    between atoms: _232  and  _233
REMARK   98  A    between atoms: _236  and  _238
REMARK   99  A    between atoms: _238  and  _239
REMARK  100  A    between atoms: _238  and  _241
REMARK  101  A    between atoms: _241  and  _242
REMARK  102  A    between atoms: _245  and  _247
REMARK  103  A    between atoms: _247  and  _248
REMARK  104  A    between atoms: _247  and  _250
REMARK  105  A    between atoms: _250  and  _251
REMARK  106  A    between atoms: _251  and  _252
REMARK  107  A    between atoms: _255  and  _257
REMARK  108  A    between atoms: _257  and  _258
REMARK  109  A    between atoms: _257  and  _260
REMARK  110  A    between atoms: _260  and  _261
REMARK  111  A    between atoms: _261  and  _262
REMARK  112  A    between atoms: _262  and  _263
REMARK  113  A    between atoms: _273  and  _274
REMARK  114  A    between atoms: _279  and  _281
REMARK  115  A    between atoms: _281  and  _282
REMARK  116  A    between atoms: _281  and  _284
REMARK  117  A    between atoms: _284  and  _285
REMARK  118  A    between atoms: _285  and  _286
REMARK  119  A    between atoms: _290  and  _291
REMARK  120  A    between atoms: _296  and  _298
REMARK  121  A    between atoms: _298  and  _299
REMARK  122  A    between atoms: _298  and  _301
REMARK  123  A    between atoms: _304  and  _306
REMARK  124  A    between atoms: _306  and  _307
REMARK  125  A    between atoms: _306  and  _309
REMARK  126  A    between atoms: _309  and  _310
REMARK  127  A    between atoms: _310  and  _311
REMARK  128  A    between atoms: _316  and  _318
REMARK  129  A    between atoms: _318  and  _319
REMARK  130  A    between atoms: _318  and  _321
REMARK  131  A    between atoms: _321  and  _322
REMARK  132  A    between atoms: _325  and  _327
REMARK  133  A    between atoms: _327  and  _328
REMARK  134  A    between atoms: _327  and  _330
REMARK  135  A    between atoms: _330  and  _331
REMARK  136  A    between atoms: _334  and  _336
REMARK  137  A    between atoms: _336  and  _337
REMARK  138  A    between atoms: _336  and  _339
REMARK  139  A    between atoms: _339  and  _340
REMARK  140  A    between atoms: _346  and  _348
REMARK  141  A    between atoms: _348  and  _349
REMARK  142  A    between atoms: _348  and  _351
REMARK  143  A    between atoms: _351  and  _352
REMARK  144  A    between atoms: _355  and  _357
REMARK  145  A    between atoms: _357  and  _358
REMARK  146  A    between atoms: _357  and  _360
REMARK  147  A    between atoms: _360  and  _361
REMARK  148  A    between atoms: _367  and  _369
REMARK  149  A    between atoms: _369  and  _370
REMARK  150  A    between atoms: _369  and  _372
REMARK  151  A    between atoms: _372  and  _373
REMARK  152  A    between atoms: _376  and  _378
REMARK  153  A    between atoms: _378  and  _379
REMARK  154  A    between atoms: _378  and  _381
REMARK  155  A    between atoms: _381  and  _382
REMARK  156  A    between atoms: _385  and  _387
REMARK  157  A    between atoms: _387  and  _388
REMARK  158  A    between atoms: _387  and  _390
REMARK  159  A    between atoms: _390  and  _391
REMARK  160  A    between atoms: _391  and  _392
REMARK  161  A    between atoms: _395  and  _397
REMARK  162  A    between atoms: _397  and  _398
REMARK  163  A    between atoms: _397  and  _400
REMARK  164  A    between atoms: _400  and  _401
REMARK  165  A    between atoms: _406  and  _408
REMARK  166  A    between atoms: _408  and  _409
REMARK  167  A    between atoms: _408  and  _411
REMARK  168  A    between atoms: _411  and  _412
REMARK  169  A    between atoms: _415  and  _417
REMARK  170  A    between atoms: _417  and  _418
REMARK  171  A    between atoms: _417  and  _420
REMARK  172  A    between atoms: _420  and  _421
REMARK  173  A    between atoms: _424  and  _426
REMARK  174  A    between atoms: _426  and  _427
REMARK  175  A    between atoms: _426  and  _429
REMARK  176  A    between atoms: _429  and  _430
REMARK  177  A    between atoms: _433  and  _435
REMARK  178  A    between atoms: _435  and  _436
REMARK  179  A    between atoms: _435  and  _438
REMARK  180  A    between atoms: _438  and  _439
REMARK  181  A    between atoms: _442  and  _444
REMARK  182  A    between atoms: _444  and  _445
REMARK  183  A    between atoms: _444  and  _447
REMARK  184  A    between atoms: _447  and  _448
REMARK  185  A    between atoms: _451  and  _453
REMARK  186  A    between atoms: _453  and  _454
REMARK  187  A    between atoms: _453  and  _456
REMARK  188  A    between atoms: _456  and  _457
REMARK  189  A    between atoms: _457  and  _458
REMARK  190  A    between atoms: _458  and  _459
REMARK  191  A    between atoms: _459  and  _460
REMARK  192  A    between atoms: _464  and  _466
REMARK  193  A    between atoms: _466  and  _467
REMARK  194  A    between atoms: _466  and  _469
REMARK  195  A    between atoms: _469  and  _470
REMARK  196  A    between atoms: _473  and  _475
REMARK  197  A    between atoms: _475  and  _476
REMARK  198  A    between atoms: _475  and  _478
REMARK  199  A    between atoms: _478  and  _479
REMARK  200  A    between atoms: _482  and  _484
REMARK  201  A    between atoms: _484  and  _485
REMARK  202  A    between atoms: _484  and  _487
REMARK  203  A    between atoms: _487  and  _488
REMARK  204  A    between atoms: _491  and  _493
REMARK  205  A    between atoms: _493  and  _494
REMARK  206  A    between atoms: _493  and  _496
REMARK  207  A    between atoms: _496  and  _497
REMARK  208  A    between atoms: _503  and  _505
REMARK  209  A    between atoms: _505  and  _506
REMARK  210  A    between atoms: _508  and  _510
REMARK  211  A    between atoms: _510  and  _511
REMARK  212  A    between atoms: _510  and  _513
REMARK  213  A    between atoms: _513  and  _514
REMARK                            x       y       z     vdW  Elec       q    Type
REMARK                         _______ _______ _______ _____ _____    ______ ____
ROOT
ATOM      1  O   HOH     1     -26.565 -41.770   3.056  0.00  0.00    +0.000 OA
ENDROOT
TORSDOF 0
REMARK  Name = ../refined-set-2016/4k18/4k18_pocket.pdb
REMARK  213 active torsions:
REMARK  status: ('A' for Active; 'I' for Inactive)
REMARK    1  A    between atoms: _1  and  _3
REMARK    2  A    between atoms: _3  and  _4
REMARK    3  A    between atoms: _3  and  _6
REMARK    4  A    between atoms: _6  and  _7
REMARK    5  A    between atoms: _10  and  _12
REMARK    6  A    between atoms: _12  and  _13
REMARK    7  A    between atoms: _12  and  _15
REMARK    8  A    between atoms: _15  and  _16
REMARK    9  A    between atoms: _19  and  _21
REMARK   10  A    between atoms: _21  and  _22
REMARK   11  A    between atoms: _24  and  _26
REMARK   12  A    between atoms: _26  and  _27
REMARK   13  A    between atoms: _26  and  _29
REMARK   14  A    between atoms: _29  and  _30
REMARK   15  A    between atoms: _32  and  _34
REMARK   16  A    between atoms: _34  and  _35
REMARK   17  A    between atoms: _37  and  _39
REMARK   18  A    between atoms: _39  and  _40
REMARK   19  A    between atoms: _42  and  _44
REMARK   20  A    between atoms: _44  and  _45
REMARK   21  A    between atoms: _44  and  _47
REMARK   22  A    between atoms: _47  and  _48
REMARK   23  A    between atoms: _54  and  _56
REMARK   24  A    between atoms: _56  and  _57
REMARK   25  A    between atoms: _59  and  _61
REMARK   26  A    between atoms: _61  and  _62
REMARK   27  A    between atoms: _61  and  _64
REMARK   28  A    between atoms: _64  and  _65
REMARK   29  A    between atoms: _67  and  _69
REMARK   30  A    between atoms: _69  and  _70
REMARK   31  A    between atoms: _69  and  _72
REMARK   32  A    between atoms: _75  and  _77
REMARK   33  A    between atoms: _77  and  _78
REMARK   34  A    between atoms: _77  and  _80
REMARK   35  A    between atoms: _80  and  _81
REMARK   36  A    between atoms: _86  and  _87
REMARK   37  A    between atoms: _89  and  _91
REMARK   38  A    between atoms: _91  and  _92
REMARK   39  A    between atoms: _91  and  _94
REMARK   40  A    between atoms: _94  and  _95
REMARK   41  A    between atoms: _97  and  _99
REMARK   42  A    between atoms: _99  and  _100
REMARK   43  A    between atoms: _103  and  _104
REMARK   44  A    between atoms: _109  and  _111
REMARK   45  A    between atoms: _111  and  _112
REMARK   46  A    between atoms: _111  and  _114
REMARK   47  A    between atoms: _117  and  _119
REMARK   48  A    between atoms: _119  and  _120
REMARK   49  A    between atoms: _123  and  _125
REMARK   50  A    between atoms: _125  and  _126
REMARK   51  A    between atoms: _125  and  _128
REMARK   52  A    between atoms: _128  and  _129
REMARK   53  A    between atoms: _132  and  _134
REMARK   54  A    between atoms: _134  and  _135
REMARK   55  A    between atoms: _134  and  _137
REMARK   56  A    between atoms: _137  and  _138
REMARK   57  A    between atoms: _138  and  _139
REMARK   58  A    between atoms: _139  and  _140
REMARK   59  A    between atoms: _140  and  _141
REMARK   60  A    between atoms: _145  and  _147
REMARK   61  A    between atoms: _147  and  _148
REMARK   62  A    between atoms: _147  and  _150
REMARK   63  A    between atoms: _150  and  _151
REMARK   64  A    between atoms: _156  and  _158
REMARK   65  A    between atoms: _158  and  _159
REMARK   66  A    between atoms: _158  and  _161
REMARK   67  A    between atoms: _164  and  _166
REMARK   68  A    between atoms: _166  and  _167
REMARK   69  A    between atoms: _166  and  _169
REMARK   70  A    between atoms: _169  and  _170
REMARK   71  A    between atoms: _170  and  _171
REMARK   72  A    between atoms: _174  and  _176
REMARK   73  A    between atoms: _176  and  _177
REMARK   74  A    between atoms: _176  and  _179
REMARK   75  A    between atoms: _179  and  _180
REMARK   76  A    between atoms: _183  and  _185
REMARK   77  A    between atoms: _185  and  _186
REMARK   78  A    between atoms: _185  and  _188
REMARK   79  A    between atoms: _188  and  _189
REMARK   80  A    between atoms: _192  and  _194
REMARK   81  A    between atoms: _194  and  _195
REMARK   82  A    between atoms: _194  and  _197
REMARK   83  A    between atoms: _197  and  _198
REMARK   84  A    between atoms: _198  and  _199
REMARK   85  A    between atoms: _199  and  _200
REMARK   86  A    between atoms: _209  and  _211
REMARK   87  A    between atoms: _211  and  _212
REMARK   88  A    between atoms: _211  and  _214
REMARK   89  A    between atoms: _214  and  _215
REMARK   90  A    between atoms: _218  and  _220
REMARK   91  A    between atoms: _220  and  _221
REMARK   92  A    between atoms: _220  and  _223
REMARK   93  A    between atoms: _223  and  _224
REMARK   94  A    between atoms: _227  and  _229
REMARK   95  A    between atoms: _229  and  _230
REMARK   96  A    between atoms: _229  and  _232
REMARK   97  A    between atoms: _232  and  _233
REMARK   98  A    between atoms: _236  and  _238
REMARK   99  A    between atoms: _238  and  _239
REMARK  100  A    between atoms: _238  and  _241
REMARK  101  A    between atoms: _241  and  _242
REMARK  102  A    between atoms: _245  and  _247
REMARK  103  A    between atoms: _247  and  _248
REMARK  104  A    between atoms: _247  and  _250
REMARK  105  A    between atoms: _250  and  _251
REMARK  106  A    between atoms: _251  and  _252
REMARK  107  A    between atoms: _255  and  _257
REMARK  108  A    between atoms: _257  and  _258
REMARK  109  A    between atoms: _257  and  _260
REMARK  110  A    between atoms: _260  and  _261
REMARK  111  A    between atoms: _261  and  _262
REMARK  112  A    between atoms: _262  and  _263
REMARK  113  A    between atoms: _273  and  _274
REMARK  114  A    between atoms: _279  and  _281
REMARK  115  A    between atoms: _281  and  _282
REMARK  116  A    between atoms: _281  and  _284
REMARK  117  A    between atoms: _284  and  _285
REMARK  118  A    between atoms: _285  and  _286
REMARK  119  A    between atoms: _290  and  _291
REMARK  120  A    between atoms: _296  and  _298
REMARK  121  A    between atoms: _298  and  _299
REMARK  122  A    between atoms: _298  and  _301
REMARK  123  A    between atoms: _304  and  _306
REMARK  124  A    between atoms: _306  and  _307
REMARK  125  A    between atoms: _306  and  _309
REMARK  126  A    between atoms: _309  and  _310
REMARK  127  A    between atoms: _310  and  _311
REMARK  128  A    between atoms: _316  and  _318
REMARK  129  A    between atoms: _318  and  _319
REMARK  130  A    between atoms: _318  and  _321
REMARK  131  A    between atoms: _321  and  _322
REMARK  132  A    between atoms: _325  and  _327
REMARK  133  A    between atoms: _327  and  _328
REMARK  134  A    between atoms: _327  and  _330
REMARK  135  A    between atoms: _330  and  _331
REMARK  136  A    between atoms: _334  and  _336
REMARK  137  A    between atoms: _336  and  _337
REMARK  138  A    between atoms: _336  and  _339
REMARK  139  A    between atoms: _339  and  _340
REMARK  140  A    between atoms: _346  and  _348
REMARK  141  A    between atoms: _348  and  _349
REMARK  142  A    between atoms: _348  and  _351
REMARK  143  A    between atoms: _351  and  _352
REMARK  144  A    between atoms: _355  and  _357
REMARK  145  A    between atoms: _357  and  _358
REMARK  146  A    between atoms: _357  and  _360
REMARK  147  A    between atoms: _360  and  _361
REMARK  148  A    between atoms: _367  and  _369
REMARK  149  A    between atoms: _369  and  _370
REMARK  150  A    between atoms: _369  and  _372
REMARK  151  A    between atoms: _372  and  _373
REMARK  152  A    between atoms: _376  and  _378
REMARK  153  A    between atoms: _378  and  _379
REMARK  154  A    between atoms: _378  and  _381
REMARK  155  A    between atoms: _381  and  _382
REMARK  156  A    between atoms: _385  and  _387
REMARK  157  A    between atoms: _387  and  _388
REMARK  158  A    between atoms: _387  and  _390
REMARK  159  A    between atoms: _390  and  _391
REMARK  160  A    between atoms: _391  and  _392
REMARK  161  A    between atoms: _395  and  _397
REMARK  162  A    between atoms: _397  and  _398
REMARK  163  A    between atoms: _397  and  _400
REMARK  164  A    between atoms: _400  and  _401
REMARK  165  A    between atoms: _406  and  _408
REMARK  166  A    between atoms: _408  and  _409
REMARK  167  A    between atoms: _408  and  _411
REMARK  168  A    between atoms: _411  and  _412
REMARK  169  A    between atoms: _415  and  _417
REMARK  170  A    between atoms: _417  and  _418
REMARK  171  A    between atoms: _417  and  _420
REMARK  172  A    between atoms: _420  and  _421
REMARK  173  A    between atoms: _424  and  _426
REMARK  174  A    between atoms: _426  and  _427
REMARK  175  A    between atoms: _426  and  _429
REMARK  176  A    between atoms: _429  and  _430
REMARK  177  A    between atoms: _433  and  _435
REMARK  178  A    between atoms: _435  and  _436
REMARK  179  A    between atoms: _435  and  _438
REMARK  180  A    between atoms: _438  and  _439
REMARK  181  A    between atoms: _442  and  _444
REMARK  182  A    between atoms: _444  and  _445
REMARK  183  A    between atoms: _444  and  _447
REMARK  184  A    between atoms: _447  and  _448
REMARK  185  A    between atoms: _451  and  _453
REMARK  186  A    between atoms: _453  and  _454
REMARK  187  A    between atoms: _453  and  _456
REMARK  188  A    between atoms: _456  and  _457
REMARK  189  A    between atoms: _457  and  _458
REMARK  190  A    between atoms: _458  and  _459
REMARK  191  A    between atoms: _459  and  _460
REMARK  192  A    between atoms: _464  and  _466
REMARK  193  A    between atoms: _466  and  _467
REMARK  194  A    between atoms: _466  and  _469
REMARK  195  A    between atoms: _469  and  _470
REMARK  196  A    between atoms: _473  and  _475
REMARK  197  A    between atoms: _475  and  _476
REMARK  198  A    between atoms: _475  and  _478
REMARK  199  A    between atoms: _478  and  _479
REMARK  200  A    between atoms: _482  and  _484
REMARK  201  A    between atoms: _484  and  _485
REMARK  202  A    between atoms: _484  and  _487
REMARK  203  A    between atoms: _487  and  _488
REMARK  204  A    between atoms: _491  and  _493
REMARK  205  A    between atoms: _493  and  _494
REMARK  206  A    between atoms: _493  and  _496
REMARK  207  A    between atoms: _496  and  _497
REMARK  208  A    between atoms: _503  and  _505
REMARK  209  A    between atoms: _505  and  _506
REMARK  210  A    between atoms: _508  and  _510
REMARK  211  A    between atoms: _510  and  _511
REMARK  212  A    between atoms: _510  and  _513
REMARK  213  A    between atoms: _513  and  _514
REMARK                            x       y       z     vdW  Elec       q    Type
REMARK                         _______ _______ _______ _____ _____    ______ ____
ROOT
ATOM      1  O   HOH     1     -26.133 -43.571   6.144  0.00  0.00    +0.000 OA
ENDROOT
TORSDOF 0
REMARK  Name = ../refined-set-2016/4k18/4k18_pocket.pdb
REMARK  213 active torsions:
REMARK  status: ('A' for Active; 'I' for Inactive)
REMARK    1  A    between atoms: _1  and  _3
REMARK    2  A    between atoms: _3  and  _4
REMARK    3  A    between atoms: _3  and  _6
REMARK    4  A    between atoms: _6  and  _7
REMARK    5  A    between atoms: _10  and  _12
REMARK    6  A    between atoms: _12  and  _13
REMARK    7  A    between atoms: _12  and  _15
REMARK    8  A    between atoms: _15  and  _16
REMARK    9  A    between atoms: _19  and  _21
REMARK   10  A    between atoms: _21  and  _22
REMARK   11  A    between atoms: _24  and  _26
REMARK   12  A    between atoms: _26  and  _27
REMARK   13  A    between atoms: _26  and  _29
REMARK   14  A    between atoms: _29  and  _30
REMARK   15  A    between atoms: _32  and  _34
REMARK   16  A    between atoms: _34  and  _35
REMARK   17  A    between atoms: _37  and  _39
REMARK   18  A    between atoms: _39  and  _40
REMARK   19  A    between atoms: _42  and  _44
REMARK   20  A    between atoms: _44  and  _45
REMARK   21  A    between atoms: _44  and  _47
REMARK   22  A    between atoms: _47  and  _48
REMARK   23  A    between atoms: _54  and  _56
REMARK   24  A    between atoms: _56  and  _57
REMARK   25  A    between atoms: _59  and  _61
REMARK   26  A    between atoms: _61  and  _62
REMARK   27  A    between atoms: _61  and  _64
REMARK   28  A    between atoms: _64  and  _65
REMARK   29  A    between atoms: _67  and  _69
REMARK   30  A    between atoms: _69  and  _70
REMARK   31  A    between atoms: _69  and  _72
REMARK   32  A    between atoms: _75  and  _77
REMARK   33  A    between atoms: _77  and  _78
REMARK   34  A    between atoms: _77  and  _80
REMARK   35  A    between atoms: _80  and  _81
REMARK   36  A    between atoms: _86  and  _87
REMARK   37  A    between atoms: _89  and  _91
REMARK   38  A    between atoms: _91  and  _92
REMARK   39  A    between atoms: _91  and  _94
REMARK   40  A    between atoms: _94  and  _95
REMARK   41  A    between atoms: _97  and  _99
REMARK   42  A    between atoms: _99  and  _100
REMARK   43  A    between atoms: _103  and  _104
REMARK   44  A    between atoms: _109  and  _111
REMARK   45  A    between atoms: _111  and  _112
REMARK   46  A    between atoms: _111  and  _114
REMARK   47  A    between atoms: _117  and  _119
REMARK   48  A    between atoms: _119  and  _120
REMARK   49  A    between atoms: _123  and  _125
REMARK   50  A    between atoms: _125  and  _126
REMARK   51  A    between atoms: _125  and  _128
REMARK   52  A    between atoms: _128  and  _129
REMARK   53  A    between atoms: _132  and  _134
REMARK   54  A    between atoms: _134  and  _135
REMARK   55  A    between atoms: _134  and  _137
REMARK   56  A    between atoms: _137  and  _138
REMARK   57  A    between atoms: _138  and  _139
REMARK   58  A    between atoms: _139  and  _140
REMARK   59  A    between atoms: _140  and  _141
REMARK   60  A    between atoms: _145  and  _147
REMARK   61  A    between atoms: _147  and  _148
REMARK   62  A    between atoms: _147  and  _150
REMARK   63  A    between atoms: _150  and  _151
REMARK   64  A    between atoms: _156  and  _158
REMARK   65  A    between atoms: _158  and  _159
REMARK   66  A    between atoms: _158  and  _161
REMARK   67  A    between atoms: _164  and  _166
REMARK   68  A    between atoms: _166  and  _167
REMARK   69  A    between atoms: _166  and  _169
REMARK   70  A    between atoms: _169  and  _170
REMARK   71  A    between atoms: _170  and  _171
REMARK   72  A    between atoms: _174  and  _176
REMARK   73  A    between atoms: _176  and  _177
REMARK   74  A    between atoms: _176  and  _179
REMARK   75  A    between atoms: _179  and  _180
REMARK   76  A    between atoms: _183  and  _185
REMARK   77  A    between atoms: _185  and  _186
REMARK   78  A    between atoms: _185  and  _188
REMARK   79  A    between atoms: _188  and  _189
REMARK   80  A    between atoms: _192  and  _194
REMARK   81  A    between atoms: _194  and  _195
REMARK   82  A    between atoms: _194  and  _197
REMARK   83  A    between atoms: _197  and  _198
REMARK   84  A    between atoms: _198  and  _199
REMARK   85  A    between atoms: _199  and  _200
REMARK   86  A    between atoms: _209  and  _211
REMARK   87  A    between atoms: _211  and  _212
REMARK   88  A    between atoms: _211  and  _214
REMARK   89  A    between atoms: _214  and  _215
REMARK   90  A    between atoms: _218  and  _220
REMARK   91  A    between atoms: _220  and  _221
REMARK   92  A    between atoms: _220  and  _223
REMARK   93  A    between atoms: _223  and  _224
REMARK   94  A    between atoms: _227  and  _229
REMARK   95  A    between atoms: _229  and  _230
REMARK   96  A    between atoms: _229  and  _232
REMARK   97  A    between atoms: _232  and  _233
REMARK   98  A    between atoms: _236  and  _238
REMARK   99  A    between atoms: _238  and  _239
REMARK  100  A    between atoms: _238  and  _241
REMARK  101  A    between atoms: _241  and  _242
REMARK  102  A    between atoms: _245  and  _247
REMARK  103  A    between atoms: _247  and  _248
REMARK  104  A    between atoms: _247  and  _250
REMARK  105  A    between atoms: _250  and  _251
REMARK  106  A    between atoms: _251  and  _252
REMARK  107  A    between atoms: _255  and  _257
REMARK  108  A    between atoms: _257  and  _258
REMARK  109  A    between atoms: _257  and  _260
REMARK  110  A    between atoms: _260  and  _261
REMARK  111  A    between atoms: _261  and  _262
REMARK  112  A    between atoms: _262  and  _263
REMARK  113  A    between atoms: _273  and  _274
REMARK  114  A    between atoms: _279  and  _281
REMARK  115  A    between atoms: _281  and  _282
REMARK  116  A    between atoms: _281  and  _284
REMARK  117  A    between atoms: _284  and  _285
REMARK  118  A    between atoms: _285  and  _286
REMARK  119  A    between atoms: _290  and  _291
REMARK  120  A    between atoms: _296  and  _298
REMARK  121  A    between atoms: _298  and  _299
REMARK  122  A    between atoms: _298  and  _301
REMARK  123  A    between atoms: _304  and  _306
REMARK  124  A    between atoms: _306  and  _307
REMARK  125  A    between atoms: _306  and  _309
REMARK  126  A    between atoms: _309  and  _310
REMARK  127  A    between atoms: _310  and  _311
REMARK  128  A    between atoms: _316  and  _318
REMARK  129  A    between atoms: _318  and  _319
REMARK  130  A    between atoms: _318  and  _321
REMARK  131  A    between atoms: _321  and  _322
REMARK  132  A    between atoms: _325  and  _327
REMARK  133  A    between atoms: _327  and  _328
REMARK  134  A    between atoms: _327  and  _330
REMARK  135  A    between atoms: _330  and  _331
REMARK  136  A    between atoms: _334  and  _336
REMARK  137  A    between atoms: _336  and  _337
REMARK  138  A    between atoms: _336  and  _339
REMARK  139  A    between atoms: _339  and  _340
REMARK  140  A    between atoms: _346  and  _348
REMARK  141  A    between atoms: _348  and  _349
REMARK  142  A    between atoms: _348  and  _351
REMARK  143  A    between atoms: _351  and  _352
REMARK  144  A    between atoms: _355  and  _357
REMARK  145  A    between atoms: _357  and  _358
REMARK  146  A    between atoms: _357  and  _360
REMARK  147  A    between atoms: _360  and  _361
REMARK  148  A    between atoms: _367  and  _369
REMARK  149  A    between atoms: _369  and  _370
REMARK  150  A    between atoms: _369  and  _372
REMARK  151  A    between atoms: _372  and  _373
REMARK  152  A    between atoms: _376  and  _378
REMARK  153  A    between atoms: _378  and  _379
REMARK  154  A    between atoms: _378  and  _381
REMARK  155  A    between atoms: _381  and  _382
REMARK  156  A    between atoms: _385  and  _387
REMARK  157  A    between atoms: _387  and  _388
REMARK  158  A    between atoms: _387  and  _390
REMARK  159  A    between atoms: _390  and  _391
REMARK  160  A    between atoms: _391  and  _392
REMARK  161  A    between atoms: _395  and  _397
REMARK  162  A    between atoms: _397  and  _398
REMARK  163  A    between atoms: _397  and  _400
REMARK  164  A    between atoms: _400  and  _401
REMARK  165  A    between atoms: _406  and  _408
REMARK  166  A    between atoms: _408  and  _409
REMARK  167  A    between atoms: _408  and  _411
REMARK  168  A    between atoms: _411  and  _412
REMARK  169  A    between atoms: _415  and  _417
REMARK  170  A    between atoms: _417  and  _418
REMARK  171  A    between atoms: _417  and  _420
REMARK  172  A    between atoms: _420  and  _421
REMARK  173  A    between atoms: _424  and  _426
REMARK  174  A    between atoms: _426  and  _427
REMARK  175  A    between atoms: _426  and  _429
REMARK  176  A    between atoms: _429  and  _430
REMARK  177  A    between atoms: _433  and  _435
REMARK  178  A    between atoms: _435  and  _436
REMARK  179  A    between atoms: _435  and  _438
REMARK  180  A    between atoms: _438  and  _439
REMARK  181  A    between atoms: _442  and  _444
REMARK  182  A    between atoms: _444  and  _445
REMARK  183  A    between atoms: _444  and  _447
REMARK  184  A    between atoms: _447  and  _448
REMARK  185  A    between atoms: _451  and  _453
REMARK  186  A    between atoms: _453  and  _454
REMARK  187  A    between atoms: _453  and  _456
REMARK  188  A    between atoms: _456  and  _457
REMARK  189  A    between atoms: _457  and  _458
REMARK  190  A    between atoms: _458  and  _459
REMARK  191  A    between atoms: _459  and  _460
REMARK  192  A    between atoms: _464  and  _466
REMARK  193  A    between atoms: _466  and  _467
REMARK  194  A    between atoms: _466  and  _469
REMARK  195  A    between atoms: _469  and  _470
REMARK  196  A    between atoms: _473  and  _475
REMARK  197  A    between atoms: _475  and  _476
REMARK  198  A    between atoms: _475  and  _478
REMARK  199  A    between atoms: _478  and  _479
REMARK  200  A    between atoms: _482  and  _484
REMARK  201  A    between atoms: _484  and  _485
REMARK  202  A    between atoms: _484  and  _487
REMARK  203  A    between atoms: _487  and  _488
REMARK  204  A    between atoms: _491  and  _493
REMARK  205  A    between atoms: _493  and  _494
REMARK  206  A    between atoms: _493  and  _496
REMARK  207  A    between atoms: _496  and  _497
REMARK  208  A    between atoms: _503  and  _505
REMARK  209  A    between atoms: _505  and  _506
REMARK  210  A    between atoms: _508  and  _510
REMARK  211  A    between atoms: _510  and  _511
REMARK  212  A    between atoms: _510  and  _513
REMARK  213  A    between atoms: _513  and  _514
REMARK                            x       y       z     vdW  Elec       q    Type
REMARK                         _______ _______ _______ _____ _____    ______ ____
ROOT
ATOM      1  O   HOH     1     -19.694 -40.554   9.277  0.00  0.00    +0.000 OA
ENDROOT
TORSDOF 0
REMARK  Name = ../refined-set-2016/4k18/4k18_pocket.pdb
REMARK  213 active torsions:
REMARK  status: ('A' for Active; 'I' for Inactive)
REMARK    1  A    between atoms: _1  and  _3
REMARK    2  A    between atoms: _3  and  _4
REMARK    3  A    between atoms: _3  and  _6
REMARK    4  A    between atoms: _6  and  _7
REMARK    5  A    between atoms: _10  and  _12
REMARK    6  A    between atoms: _12  and  _13
REMARK    7  A    between atoms: _12  and  _15
REMARK    8  A    between atoms: _15  and  _16
REMARK    9  A    between atoms: _19  and  _21
REMARK   10  A    between atoms: _21  and  _22
REMARK   11  A    between atoms: _24  and  _26
REMARK   12  A    between atoms: _26  and  _27
REMARK   13  A    between atoms: _26  and  _29
REMARK   14  A    between atoms: _29  and  _30
REMARK   15  A    between atoms: _32  and  _34
REMARK   16  A    between atoms: _34  and  _35
REMARK   17  A    between atoms: _37  and  _39
REMARK   18  A    between atoms: _39  and  _40
REMARK   19  A    between atoms: _42  and  _44
REMARK   20  A    between atoms: _44  and  _45
REMARK   21  A    between atoms: _44  and  _47
REMARK   22  A    between atoms: _47  and  _48
REMARK   23  A    between atoms: _54  and  _56
REMARK   24  A    between atoms: _56  and  _57
REMARK   25  A    between atoms: _59  and  _61
REMARK   26  A    between atoms: _61  and  _62
REMARK   27  A    between atoms: _61  and  _64
REMARK   28  A    between atoms: _64  and  _65
REMARK   29  A    between atoms: _67  and  _69
REMARK   30  A    between atoms: _69  and  _70
REMARK   31  A    between atoms: _69  and  _72
REMARK   32  A    between atoms: _75  and  _77
REMARK   33  A    between atoms: _77  and  _78
REMARK   34  A    between atoms: _77  and  _80
REMARK   35  A    between atoms: _80  and  _81
REMARK   36  A    between atoms: _86  and  _87
REMARK   37  A    between atoms: _89  and  _91
REMARK   38  A    between atoms: _91  and  _92
REMARK   39  A    between atoms: _91  and  _94
REMARK   40  A    between atoms: _94  and  _95
REMARK   41  A    between atoms: _97  and  _99
REMARK   42  A    between atoms: _99  and  _100
REMARK   43  A    between atoms: _103  and  _104
REMARK   44  A    between atoms: _109  and  _111
REMARK   45  A    between atoms: _111  and  _112
REMARK   46  A    between atoms: _111  and  _114
REMARK   47  A    between atoms: _117  and  _119
REMARK   48  A    between atoms: _119  and  _120
REMARK   49  A    between atoms: _123  and  _125
REMARK   50  A    between atoms: _125  and  _126
REMARK   51  A    between atoms: _125  and  _128
REMARK   52  A    between atoms: _128  and  _129
REMARK   53  A    between atoms: _132  and  _134
REMARK   54  A    between atoms: _134  and  _135
REMARK   55  A    between atoms: _134  and  _137
REMARK   56  A    between atoms: _137  and  _138
REMARK   57  A    between atoms: _138  and  _139
REMARK   58  A    between atoms: _139  and  _140
REMARK   59  A    between atoms: _140  and  _141
REMARK   60  A    between atoms: _145  and  _147
REMARK   61  A    between atoms: _147  and  _148
REMARK   62  A    between atoms: _147  and  _150
REMARK   63  A    between atoms: _150  and  _151
REMARK   64  A    between atoms: _156  and  _158
REMARK   65  A    between atoms: _158  and  _159
REMARK   66  A    between atoms: _158  and  _161
REMARK   67  A    between atoms: _164  and  _166
REMARK   68  A    between atoms: _166  and  _167
REMARK   69  A    between atoms: _166  and  _169
REMARK   70  A    between atoms: _169  and  _170
REMARK   71  A    between atoms: _170  and  _171
REMARK   72  A    between atoms: _174  and  _176
REMARK   73  A    between atoms: _176  and  _177
REMARK   74  A    between atoms: _176  and  _179
REMARK   75  A    between atoms: _179  and  _180
REMARK   76  A    between atoms: _183  and  _185
REMARK   77  A    between atoms: _185  and  _186
REMARK   78  A    between atoms: _185  and  _188
REMARK   79  A    between atoms: _188  and  _189
REMARK   80  A    between atoms: _192  and  _194
REMARK   81  A    between atoms: _194  and  _195
REMARK   82  A    between atoms: _194  and  _197
REMARK   83  A    between atoms: _197  and  _198
REMARK   84  A    between atoms: _198  and  _199
REMARK   85  A    between atoms: _199  and  _200
REMARK   86  A    between atoms: _209  and  _211
REMARK   87  A    between atoms: _211  and  _212
REMARK   88  A    between atoms: _211  and  _214
REMARK   89  A    between atoms: _214  and  _215
REMARK   90  A    between atoms: _218  and  _220
REMARK   91  A    between atoms: _220  and  _221
REMARK   92  A    between atoms: _220  and  _223
REMARK   93  A    between atoms: _223  and  _224
REMARK   94  A    between atoms: _227  and  _229
REMARK   95  A    between atoms: _229  and  _230
REMARK   96  A    between atoms: _229  and  _232
REMARK   97  A    between atoms: _232  and  _233
REMARK   98  A    between atoms: _236  and  _238
REMARK   99  A    between atoms: _238  and  _239
REMARK  100  A    between atoms: _238  and  _241
REMARK  101  A    between atoms: _241  and  _242
REMARK  102  A    between atoms: _245  and  _247
REMARK  103  A    between atoms: _247  and  _248
REMARK  104  A    between atoms: _247  and  _250
REMARK  105  A    between atoms: _250  and  _251
REMARK  106  A    between atoms: _251  and  _252
REMARK  107  A    between atoms: _255  and  _257
REMARK  108  A    between atoms: _257  and  _258
REMARK  109  A    between atoms: _257  and  _260
REMARK  110  A    between atoms: _260  and  _261
REMARK  111  A    between atoms: _261  and  _262
REMARK  112  A    between atoms: _262  and  _263
REMARK  113  A    between atoms: _273  and  _274
REMARK  114  A    between atoms: _279  and  _281
REMARK  115  A    between atoms: _281  and  _282
REMARK  116  A    between atoms: _281  and  _284
REMARK  117  A    between atoms: _284  and  _285
REMARK  118  A    between atoms: _285  and  _286
REMARK  119  A    between atoms: _290  and  _291
REMARK  120  A    between atoms: _296  and  _298
REMARK  121  A    between atoms: _298  and  _299
REMARK  122  A    between atoms: _298  and  _301
REMARK  123  A    between atoms: _304  and  _306
REMARK  124  A    between atoms: _306  and  _307
REMARK  125  A    between atoms: _306  and  _309
REMARK  126  A    between atoms: _309  and  _310
REMARK  127  A    between atoms: _310  and  _311
REMARK  128  A    between atoms: _316  and  _318
REMARK  129  A    between atoms: _318  and  _319
REMARK  130  A    between atoms: _318  and  _321
REMARK  131  A    between atoms: _321  and  _322
REMARK  132  A    between atoms: _325  and  _327
REMARK  133  A    between atoms: _327  and  _328
REMARK  134  A    between atoms: _327  and  _330
REMARK  135  A    between atoms: _330  and  _331
REMARK  136  A    between atoms: _334  and  _336
REMARK  137  A    between atoms: _336  and  _337
REMARK  138  A    between atoms: _336  and  _339
REMARK  139  A    between atoms: _339  and  _340
REMARK  140  A    between atoms: _346  and  _348
REMARK  141  A    between atoms: _348  and  _349
REMARK  142  A    between atoms: _348  and  _351
REMARK  143  A    between atoms: _351  and  _352
REMARK  144  A    between atoms: _355  and  _357
REMARK  145  A    between atoms: _357  and  _358
REMARK  146  A    between atoms: _357  and  _360
REMARK  147  A    between atoms: _360  and  _361
REMARK  148  A    between atoms: _367  and  _369
REMARK  149  A    between atoms: _369  and  _370
REMARK  150  A    between atoms: _369  and  _372
REMARK  151  A    between atoms: _372  and  _373
REMARK  152  A    between atoms: _376  and  _378
REMARK  153  A    between atoms: _378  and  _379
REMARK  154  A    between atoms: _378  and  _381
REMARK  155  A    between atoms: _381  and  _382
REMARK  156  A    between atoms: _385  and  _387
REMARK  157  A    between atoms: _387  and  _388
REMARK  158  A    between atoms: _387  and  _390
REMARK  159  A    between atoms: _390  and  _391
REMARK  160  A    between atoms: _391  and  _392
REMARK  161  A    between atoms: _395  and  _397
REMARK  162  A    between atoms: _397  and  _398
REMARK  163  A    between atoms: _397  and  _400
REMARK  164  A    between atoms: _400  and  _401
REMARK  165  A    between atoms: _406  and  _408
REMARK  166  A    between atoms: _408  and  _409
REMARK  167  A    between atoms: _408  and  _411
REMARK  168  A    between atoms: _411  and  _412
REMARK  169  A    between atoms: _415  and  _417
REMARK  170  A    between atoms: _417  and  _418
REMARK  171  A    between atoms: _417  and  _420
REMARK  172  A    between atoms: _420  and  _421
REMARK  173  A    between atoms: _424  and  _426
REMARK  174  A    between atoms: _426  and  _427
REMARK  175  A    between atoms: _426  and  _429
REMARK  176  A    between atoms: _429  and  _430
REMARK  177  A    between atoms: _433  and  _435
REMARK  178  A    between atoms: _435  and  _436
REMARK  179  A    between atoms: _435  and  _438
REMARK  180  A    between atoms: _438  and  _439
REMARK  181  A    between atoms: _442  and  _444
REMARK  182  A    between atoms: _444  and  _445
REMARK  183  A    between atoms: _444  and  _447
REMARK  184  A    between atoms: _447  and  _448
REMARK  185  A    between atoms: _451  and  _453
REMARK  186  A    between atoms: _453  and  _454
REMARK  187  A    between atoms: _453  and  _456
REMARK  188  A    between atoms: _456  and  _457
REMARK  189  A    between atoms: _457  and  _458
REMARK  190  A    between atoms: _458  and  _459
REMARK  191  A    between atoms: _459  and  _460
REMARK  192  A    between atoms: _464  and  _466
REMARK  193  A    between atoms: _466  and  _467
REMARK  194  A    between atoms: _466  and  _469
REMARK  195  A    between atoms: _469  and  _470
REMARK  196  A    between atoms: _473  and  _475
REMARK  197  A    between atoms: _475  and  _476
REMARK  198  A    between atoms: _475  and  _478
REMARK  199  A    between atoms: _478  and  _479
REMARK  200  A    between atoms: _482  and  _484
REMARK  201  A    between atoms: _484  and  _485
REMARK  202  A    between atoms: _484  and  _487
REMARK  203  A    between atoms: _487  and  _488
REMARK  204  A    between atoms: _491  and  _493
REMARK  205  A    between atoms: _493  and  _494
REMARK  206  A    between atoms: _493  and  _496
REMARK  207  A    between atoms: _496  and  _497
REMARK  208  A    between atoms: _503  and  _505
REMARK  209  A    between atoms: _505  and  _506
REMARK  210  A    between atoms: _508  and  _510
REMARK  211  A    between atoms: _510  and  _511
REMARK  212  A    between atoms: _510  and  _513
REMARK  213  A    between atoms: _513  and  _514
REMARK                            x       y       z     vdW  Elec       q    Type
REMARK                         _______ _______ _______ _____ _____    ______ ____
ROOT
ATOM      1  O   HOH     1      -9.644 -31.070   1.447  0.00  0.00    +0.000 OA
ENDROOT
TORSDOF 0
REMARK  Name = ../refined-set-2016/4k18/4k18_pocket.pdb
REMARK  213 active torsions:
REMARK  status: ('A' for Active; 'I' for Inactive)
REMARK    1  A    between atoms: _1  and  _3
REMARK    2  A    between atoms: _3  and  _4
REMARK    3  A    between atoms: _3  and  _6
REMARK    4  A    between atoms: _6  and  _7
REMARK    5  A    between atoms: _10  and  _12
REMARK    6  A    between atoms: _12  and  _13
REMARK    7  A    between atoms: _12  and  _15
REMARK    8  A    between atoms: _15  and  _16
REMARK    9  A    between atoms: _19  and  _21
REMARK   10  A    between atoms: _21  and  _22
REMARK   11  A    between atoms: _24  and  _26
REMARK   12  A    between atoms: _26  and  _27
REMARK   13  A    between atoms: _26  and  _29
REMARK   14  A    between atoms: _29  and  _30
REMARK   15  A    between atoms: _32  and  _34
REMARK   16  A    between atoms: _34  and  _35
REMARK   17  A    between atoms: _37  and  _39
REMARK   18  A    between atoms: _39  and  _40
REMARK   19  A    between atoms: _42  and  _44
REMARK   20  A    between atoms: _44  and  _45
REMARK   21  A    between atoms: _44  and  _47
REMARK   22  A    between atoms: _47  and  _48
REMARK   23  A    between atoms: _54  and  _56
REMARK   24  A    between atoms: _56  and  _57
REMARK   25  A    between atoms: _59  and  _61
REMARK   26  A    between atoms: _61  and  _62
REMARK   27  A    between atoms: _61  and  _64
REMARK   28  A    between atoms: _64  and  _65
REMARK   29  A    between atoms: _67  and  _69
REMARK   30  A    between atoms: _69  and  _70
REMARK   31  A    between atoms: _69  and  _72
REMARK   32  A    between atoms: _75  and  _77
REMARK   33  A    between atoms: _77  and  _78
REMARK   34  A    between atoms: _77  and  _80
REMARK   35  A    between atoms: _80  and  _81
REMARK   36  A    between atoms: _86  and  _87
REMARK   37  A    between atoms: _89  and  _91
REMARK   38  A    between atoms: _91  and  _92
REMARK   39  A    between atoms: _91  and  _94
REMARK   40  A    between atoms: _94  and  _95
REMARK   41  A    between atoms: _97  and  _99
REMARK   42  A    between atoms: _99  and  _100
REMARK   43  A    between atoms: _103  and  _104
REMARK   44  A    between atoms: _109  and  _111
REMARK   45  A    between atoms: _111  and  _112
REMARK   46  A    between atoms: _111  and  _114
REMARK   47  A    between atoms: _117  and  _119
REMARK   48  A    between atoms: _119  and  _120
REMARK   49  A    between atoms: _123  and  _125
REMARK   50  A    between atoms: _125  and  _126
REMARK   51  A    between atoms: _125  and  _128
REMARK   52  A    between atoms: _128  and  _129
REMARK   53  A    between atoms: _132  and  _134
REMARK   54  A    between atoms: _134  and  _135
REMARK   55  A    between atoms: _134  and  _137
REMARK   56  A    between atoms: _137  and  _138
REMARK   57  A    between atoms: _138  and  _139
REMARK   58  A    between atoms: _139  and  _140
REMARK   59  A    between atoms: _140  and  _141
REMARK   60  A    between atoms: _145  and  _147
REMARK   61  A    between atoms: _147  and  _148
REMARK   62  A    between atoms: _147  and  _150
REMARK   63  A    between atoms: _150  and  _151
REMARK   64  A    between atoms: _156  and  _158
REMARK   65  A    between atoms: _158  and  _159
REMARK   66  A    between atoms: _158  and  _161
REMARK   67  A    between atoms: _164  and  _166
REMARK   68  A    between atoms: _166  and  _167
REMARK   69  A    between atoms: _166  and  _169
REMARK   70  A    between atoms: _169  and  _170
REMARK   71  A    between atoms: _170  and  _171
REMARK   72  A    between atoms: _174  and  _176
REMARK   73  A    between atoms: _176  and  _177
REMARK   74  A    between atoms: _176  and  _179
REMARK   75  A    between atoms: _179  and  _180
REMARK   76  A    between atoms: _183  and  _185
REMARK   77  A    between atoms: _185  and  _186
REMARK   78  A    between atoms: _185  and  _188
REMARK   79  A    between atoms: _188  and  _189
REMARK   80  A    between atoms: _192  and  _194
REMARK   81  A    between atoms: _194  and  _195
REMARK   82  A    between atoms: _194  and  _197
REMARK   83  A    between atoms: _197  and  _198
REMARK   84  A    between atoms: _198  and  _199
REMARK   85  A    between atoms: _199  and  _200
REMARK   86  A    between atoms: _209  and  _211
REMARK   87  A    between atoms: _211  and  _212
REMARK   88  A    between atoms: _211  and  _214
REMARK   89  A    between atoms: _214  and  _215
REMARK   90  A    between atoms: _218  and  _220
REMARK   91  A    between atoms: _220  and  _221
REMARK   92  A    between atoms: _220  and  _223
REMARK   93  A    between atoms: _223  and  _224
REMARK   94  A    between atoms: _227  and  _229
REMARK   95  A    between atoms: _229  and  _230
REMARK   96  A    between atoms: _229  and  _232
REMARK   97  A    between atoms: _232  and  _233
REMARK   98  A    between atoms: _236  and  _238
REMARK   99  A    between atoms: _238  and  _239
REMARK  100  A    between atoms: _238  and  _241
REMARK  101  A    between atoms: _241  and  _242
REMARK  102  A    between atoms: _245  and  _247
REMARK  103  A    between atoms: _247  and  _248
REMARK  104  A    between atoms: _247  and  _250
REMARK  105  A    between atoms: _250  and  _251
REMARK  106  A    between atoms: _251  and  _252
REMARK  107  A    between atoms: _255  and  _257
REMARK  108  A    between atoms: _257  and  _258
REMARK  109  A    between atoms: _257  and  _260
REMARK  110  A    between atoms: _260  and  _261
REMARK  111  A    between atoms: _261  and  _262
REMARK  112  A    between atoms: _262  and  _263
REMARK  113  A    between atoms: _273  and  _274
REMARK  114  A    between atoms: _279  and  _281
REMARK  115  A    between atoms: _281  and  _282
REMARK  116  A    between atoms: _281  and  _284
REMARK  117  A    between atoms: _284  and  _285
REMARK  118  A    between atoms: _285  and  _286
REMARK  119  A    between atoms: _290  and  _291
REMARK  120  A    between atoms: _296  and  _298
REMARK  121  A    between atoms: _298  and  _299
REMARK  122  A    between atoms: _298  and  _301
REMARK  123  A    between atoms: _304  and  _306
REMARK  124  A    between atoms: _306  and  _307
REMARK  125  A    between atoms: _306  and  _309
REMARK  126  A    between atoms: _309  and  _310
REMARK  127  A    between atoms: _310  and  _311
REMARK  128  A    between atoms: _316  and  _318
REMARK  129  A    between atoms: _318  and  _319
REMARK  130  A    between atoms: _318  and  _321
REMARK  131  A    between atoms: _321  and  _322
REMARK  132  A    between atoms: _325  and  _327
REMARK  133  A    between atoms: _327  and  _328
REMARK  134  A    between atoms: _327  and  _330
REMARK  135  A    between atoms: _330  and  _331
REMARK  136  A    between atoms: _334  and  _336
REMARK  137  A    between atoms: _336  and  _337
REMARK  138  A    between atoms: _336  and  _339
REMARK  139  A    between atoms: _339  and  _340
REMARK  140  A    between atoms: _346  and  _348
REMARK  141  A    between atoms: _348  and  _349
REMARK  142  A    between atoms: _348  and  _351
REMARK  143  A    between atoms: _351  and  _352
REMARK  144  A    between atoms: _355  and  _357
REMARK  145  A    between atoms: _357  and  _358
REMARK  146  A    between atoms: _357  and  _360
REMARK  147  A    between atoms: _360  and  _361
REMARK  148  A    between atoms: _367  and  _369
REMARK  149  A    between atoms: _369  and  _370
REMARK  150  A    between atoms: _369  and  _372
REMARK  151  A    between atoms: _372  and  _373
REMARK  152  A    between atoms: _376  and  _378
REMARK  153  A    between atoms: _378  and  _379
REMARK  154  A    between atoms: _378  and  _381
REMARK  155  A    between atoms: _381  and  _382
REMARK  156  A    between atoms: _385  and  _387
REMARK  157  A    between atoms: _387  and  _388
REMARK  158  A    between atoms: _387  and  _390
REMARK  159  A    between atoms: _390  and  _391
REMARK  160  A    between atoms: _391  and  _392
REMARK  161  A    between atoms: _395  and  _397
REMARK  162  A    between atoms: _397  and  _398
REMARK  163  A    between atoms: _397  and  _400
REMARK  164  A    between atoms: _400  and  _401
REMARK  165  A    between atoms: _406  and  _408
REMARK  166  A    between atoms: _408  and  _409
REMARK  167  A    between atoms: _408  and  _411
REMARK  168  A    between atoms: _411  and  _412
REMARK  169  A    between atoms: _415  and  _417
REMARK  170  A    between atoms: _417  and  _418
REMARK  171  A    between atoms: _417  and  _420
REMARK  172  A    between atoms: _420  and  _421
REMARK  173  A    between atoms: _424  and  _426
REMARK  174  A    between atoms: _426  and  _427
REMARK  175  A    between atoms: _426  and  _429
REMARK  176  A    between atoms: _429  and  _430
REMARK  177  A    between atoms: _433  and  _435
REMARK  178  A    between atoms: _435  and  _436
REMARK  179  A    between atoms: _435  and  _438
REMARK  180  A    between atoms: _438  and  _439
REMARK  181  A    between atoms: _442  and  _444
REMARK  182  A    between atoms: _444  and  _445
REMARK  183  A    between atoms: _444  and  _447
REMARK  184  A    between atoms: _447  and  _448
REMARK  185  A    between atoms: _451  and  _453
REMARK  186  A    between atoms: _453  and  _454
REMARK  187  A    between atoms: _453  and  _456
REMARK  188  A    between atoms: _456  and  _457
REMARK  189  A    between atoms: _457  and  _458
REMARK  190  A    between atoms: _458  and  _459
REMARK  191  A    between atoms: _459  and  _460
REMARK  192  A    between atoms: _464  and  _466
REMARK  193  A    between atoms: _466  and  _467
REMARK  194  A    between atoms: _466  and  _469
REMARK  195  A    between atoms: _469  and  _470
REMARK  196  A    between atoms: _473  and  _475
REMARK  197  A    between atoms: _475  and  _476
REMARK  198  A    between atoms: _475  and  _478
REMARK  199  A    between atoms: _478  and  _479
REMARK  200  A    between atoms: _482  and  _484
REMARK  201  A    between atoms: _484  and  _485
REMARK  202  A    between atoms: _484  and  _487
REMARK  203  A    between atoms: _487  and  _488
REMARK  204  A    between atoms: _491  and  _493
REMARK  205  A    between atoms: _493  and  _494
REMARK  206  A    between atoms: _493  and  _496
REMARK  207  A    between atoms: _496  and  _497
REMARK  208  A    between atoms: _503  and  _505
REMARK  209  A    between atoms: _505  and  _506
REMARK  210  A    between atoms: _508  and  _510
REMARK  211  A    between atoms: _510  and  _511
REMARK  212  A    between atoms: _510  and  _513
REMARK  213  A    between atoms: _513  and  _514
REMARK                            x       y       z     vdW  Elec       q    Type
REMARK                         _______ _______ _______ _____ _____    ______ ____
ROOT
ATOM      1  O   HOH     1     -21.258 -41.724  12.119  0.00  0.00    +0.000 OA
ENDROOT
TORSDOF 0
REMARK  Name = ../refined-set-2016/4k18/4k18_pocket.pdb
REMARK  213 active torsions:
REMARK  status: ('A' for Active; 'I' for Inactive)
REMARK    1  A    between atoms: _1  and  _3
REMARK    2  A    between atoms: _3  and  _4
REMARK    3  A    between atoms: _3  and  _6
REMARK    4  A    between atoms: _6  and  _7
REMARK    5  A    between atoms: _10  and  _12
REMARK    6  A    between atoms: _12  and  _13
REMARK    7  A    between atoms: _12  and  _15
REMARK    8  A    between atoms: _15  and  _16
REMARK    9  A    between atoms: _19  and  _21
REMARK   10  A    between atoms: _21  and  _22
REMARK   11  A    between atoms: _24  and  _26
REMARK   12  A    between atoms: _26  and  _27
REMARK   13  A    between atoms: _26  and  _29
REMARK   14  A    between atoms: _29  and  _30
REMARK   15  A    between atoms: _32  and  _34
REMARK   16  A    between atoms: _34  and  _35
REMARK   17  A    between atoms: _37  and  _39
REMARK   18  A    between atoms: _39  and  _40
REMARK   19  A    between atoms: _42  and  _44
REMARK   20  A    between atoms: _44  and  _45
REMARK   21  A    between atoms: _44  and  _47
REMARK   22  A    between atoms: _47  and  _48
REMARK   23  A    between atoms: _54  and  _56
REMARK   24  A    between atoms: _56  and  _57
REMARK   25  A    between atoms: _59  and  _61
REMARK   26  A    between atoms: _61  and  _62
REMARK   27  A    between atoms: _61  and  _64
REMARK   28  A    between atoms: _64  and  _65
REMARK   29  A    between atoms: _67  and  _69
REMARK   30  A    between atoms: _69  and  _70
REMARK   31  A    between atoms: _69  and  _72
REMARK   32  A    between atoms: _75  and  _77
REMARK   33  A    between atoms: _77  and  _78
REMARK   34  A    between atoms: _77  and  _80
REMARK   35  A    between atoms: _80  and  _81
REMARK   36  A    between atoms: _86  and  _87
REMARK   37  A    between atoms: _89  and  _91
REMARK   38  A    between atoms: _91  and  _92
REMARK   39  A    between atoms: _91  and  _94
REMARK   40  A    between atoms: _94  and  _95
REMARK   41  A    between atoms: _97  and  _99
REMARK   42  A    between atoms: _99  and  _100
REMARK   43  A    between atoms: _103  and  _104
REMARK   44  A    between atoms: _109  and  _111
REMARK   45  A    between atoms: _111  and  _112
REMARK   46  A    between atoms: _111  and  _114
REMARK   47  A    between atoms: _117  and  _119
REMARK   48  A    between atoms: _119  and  _120
REMARK   49  A    between atoms: _123  and  _125
REMARK   50  A    between atoms: _125  and  _126
REMARK   51  A    between atoms: _125  and  _128
REMARK   52  A    between atoms: _128  and  _129
REMARK   53  A    between atoms: _132  and  _134
REMARK   54  A    between atoms: _134  and  _135
REMARK   55  A    between atoms: _134  and  _137
REMARK   56  A    between atoms: _137  and  _138
REMARK   57  A    between atoms: _138  and  _139
REMARK   58  A    between atoms: _139  and  _140
REMARK   59  A    between atoms: _140  and  _141
REMARK   60  A    between atoms: _145  and  _147
REMARK   61  A    between atoms: _147  and  _148
REMARK   62  A    between atoms: _147  and  _150
REMARK   63  A    between atoms: _150  and  _151
REMARK   64  A    between atoms: _156  and  _158
REMARK   65  A    between atoms: _158  and  _159
REMARK   66  A    between atoms: _158  and  _161
REMARK   67  A    between atoms: _164  and  _166
REMARK   68  A    between atoms: _166  and  _167
REMARK   69  A    between atoms: _166  and  _169
REMARK   70  A    between atoms: _169  and  _170
REMARK   71  A    between atoms: _170  and  _171
REMARK   72  A    between atoms: _174  and  _176
REMARK   73  A    between atoms: _176  and  _177
REMARK   74  A    between atoms: _176  and  _179
REMARK   75  A    between atoms: _179  and  _180
REMARK   76  A    between atoms: _183  and  _185
REMARK   77  A    between atoms: _185  and  _186
REMARK   78  A    between atoms: _185  and  _188
REMARK   79  A    between atoms: _188  and  _189
REMARK   80  A    between atoms: _192  and  _194
REMARK   81  A    between atoms: _194  and  _195
REMARK   82  A    between atoms: _194  and  _197
REMARK   83  A    between atoms: _197  and  _198
REMARK   84  A    between atoms: _198  and  _199
REMARK   85  A    between atoms: _199  and  _200
REMARK   86  A    between atoms: _209  and  _211
REMARK   87  A    between atoms: _211  and  _212
REMARK   88  A    between atoms: _211  and  _214
REMARK   89  A    between atoms: _214  and  _215
REMARK   90  A    between atoms: _218  and  _220
REMARK   91  A    between atoms: _220  and  _221
REMARK   92  A    between atoms: _220  and  _223
REMARK   93  A    between atoms: _223  and  _224
REMARK   94  A    between atoms: _227  and  _229
REMARK   95  A    between atoms: _229  and  _230
REMARK   96  A    between atoms: _229  and  _232
REMARK   97  A    between atoms: _232  and  _233
REMARK   98  A    between atoms: _236  and  _238
REMARK   99  A    between atoms: _238  and  _239
REMARK  100  A    between atoms: _238  and  _241
REMARK  101  A    between atoms: _241  and  _242
REMARK  102  A    between atoms: _245  and  _247
REMARK  103  A    between atoms: _247  and  _248
REMARK  104  A    between atoms: _247  and  _250
REMARK  105  A    between atoms: _250  and  _251
REMARK  106  A    between atoms: _251  and  _252
REMARK  107  A    between atoms: _255  and  _257
REMARK  108  A    between atoms: _257  and  _258
REMARK  109  A    between atoms: _257  and  _260
REMARK  110  A    between atoms: _260  and  _261
REMARK  111  A    between atoms: _261  and  _262
REMARK  112  A    between atoms: _262  and  _263
REMARK  113  A    between atoms: _273  and  _274
REMARK  114  A    between atoms: _279  and  _281
REMARK  115  A    between atoms: _281  and  _282
REMARK  116  A    between atoms: _281  and  _284
REMARK  117  A    between atoms: _284  and  _285
REMARK  118  A    between atoms: _285  and  _286
REMARK  119  A    between atoms: _290  and  _291
REMARK  120  A    between atoms: _296  and  _298
REMARK  121  A    between atoms: _298  and  _299
REMARK  122  A    between atoms: _298  and  _301
REMARK  123  A    between atoms: _304  and  _306
REMARK  124  A    between atoms: _306  and  _307
REMARK  125  A    between atoms: _306  and  _309
REMARK  126  A    between atoms: _309  and  _310
REMARK  127  A    between atoms: _310  and  _311
REMARK  128  A    between atoms: _316  and  _318
REMARK  129  A    between atoms: _318  and  _319
REMARK  130  A    between atoms: _318  and  _321
REMARK  131  A    between atoms: _321  and  _322
REMARK  132  A    between atoms: _325  and  _327
REMARK  133  A    between atoms: _327  and  _328
REMARK  134  A    between atoms: _327  and  _330
REMARK  135  A    between atoms: _330  and  _331
REMARK  136  A    between atoms: _334  and  _336
REMARK  137  A    between atoms: _336  and  _337
REMARK  138  A    between atoms: _336  and  _339
REMARK  139  A    between atoms: _339  and  _340
REMARK  140  A    between atoms: _346  and  _348
REMARK  141  A    between atoms: _348  and  _349
REMARK  142  A    between atoms: _348  and  _351
REMARK  143  A    between atoms: _351  and  _352
REMARK  144  A    between atoms: _355  and  _357
REMARK  145  A    between atoms: _357  and  _358
REMARK  146  A    between atoms: _357  and  _360
REMARK  147  A    between atoms: _360  and  _361
REMARK  148  A    between atoms: _367  and  _369
REMARK  149  A    between atoms: _369  and  _370
REMARK  150  A    between atoms: _369  and  _372
REMARK  151  A    between atoms: _372  and  _373
REMARK  152  A    between atoms: _376  and  _378
REMARK  153  A    between atoms: _378  and  _379
REMARK  154  A    between atoms: _378  and  _381
REMARK  155  A    between atoms: _381  and  _382
REMARK  156  A    between atoms: _385  and  _387
REMARK  157  A    between atoms: _387  and  _388
REMARK  158  A    between atoms: _387  and  _390
REMARK  159  A    between atoms: _390  and  _391
REMARK  160  A    between atoms: _391  and  _392
REMARK  161  A    between atoms: _395  and  _397
REMARK  162  A    between atoms: _397  and  _398
REMARK  163  A    between atoms: _397  and  _400
REMARK  164  A    between atoms: _400  and  _401
REMARK  165  A    between atoms: _406  and  _408
REMARK  166  A    between atoms: _408  and  _409
REMARK  167  A    between atoms: _408  and  _411
REMARK  168  A    between atoms: _411  and  _412
REMARK  169  A    between atoms: _415  and  _417
REMARK  170  A    between atoms: _417  and  _418
REMARK  171  A    between atoms: _417  and  _420
REMARK  172  A    between atoms: _420  and  _421
REMARK  173  A    between atoms: _424  and  _426
REMARK  174  A    between atoms: _426  and  _427
REMARK  175  A    between atoms: _426  and  _429
REMARK  176  A    between atoms: _429  and  _430
REMARK  177  A    between atoms: _433  and  _435
REMARK  178  A    between atoms: _435  and  _436
REMARK  179  A    between atoms: _435  and  _438
REMARK  180  A    between atoms: _438  and  _439
REMARK  181  A    between atoms: _442  and  _444
REMARK  182  A    between atoms: _444  and  _445
REMARK  183  A    between atoms: _444  and  _447
REMARK  184  A    between atoms: _447  and  _448
REMARK  185  A    between atoms: _451  and  _453
REMARK  186  A    between atoms: _453  and  _454
REMARK  187  A    between atoms: _453  and  _456
REMARK  188  A    between atoms: _456  and  _457
REMARK  189  A    between atoms: _457  and  _458
REMARK  190  A    between atoms: _458  and  _459
REMARK  191  A    between atoms: _459  and  _460
REMARK  192  A    between atoms: _464  and  _466
REMARK  193  A    between atoms: _466  and  _467
REMARK  194  A    between atoms: _466  and  _469
REMARK  195  A    between atoms: _469  and  _470
REMARK  196  A    between atoms: _473  and  _475
REMARK  197  A    between atoms: _475  and  _476
REMARK  198  A    between atoms: _475  and  _478
REMARK  199  A    between atoms: _478  and  _479
REMARK  200  A    between atoms: _482  and  _484
REMARK  201  A    between atoms: _484  and  _485
REMARK  202  A    between atoms: _484  and  _487
REMARK  203  A    between atoms: _487  and  _488
REMARK  204  A    between atoms: _491  and  _493
REMARK  205  A    between atoms: _493  and  _494
REMARK  206  A    between atoms: _493  and  _496
REMARK  207  A    between atoms: _496  and  _497
REMARK  208  A    between atoms: _503  and  _505
REMARK  209  A    between atoms: _505  and  _506
REMARK  210  A    between atoms: _508  and  _510
REMARK  211  A    between atoms: _510  and  _511
REMARK  212  A    between atoms: _510  and  _513
REMARK  213  A    between atoms: _513  and  _514
REMARK                            x       y       z     vdW  Elec       q    Type
REMARK                         _______ _______ _______ _____ _____    ______ ____
ROOT
ATOM      1  O   HOH     1     -16.299 -37.039  10.732  0.00  0.00    +0.000 OA
ENDROOT
TORSDOF 0
REMARK  Name = ../refined-set-2016/4k18/4k18_pocket.pdb
REMARK  213 active torsions:
REMARK  status: ('A' for Active; 'I' for Inactive)
REMARK    1  A    between atoms: _1  and  _3
REMARK    2  A    between atoms: _3  and  _4
REMARK    3  A    between atoms: _3  and  _6
REMARK    4  A    between atoms: _6  and  _7
REMARK    5  A    between atoms: _10  and  _12
REMARK    6  A    between atoms: _12  and  _13
REMARK    7  A    between atoms: _12  and  _15
REMARK    8  A    between atoms: _15  and  _16
REMARK    9  A    between atoms: _19  and  _21
REMARK   10  A    between atoms: _21  and  _22
REMARK   11  A    between atoms: _24  and  _26
REMARK   12  A    between atoms: _26  and  _27
REMARK   13  A    between atoms: _26  and  _29
REMARK   14  A    between atoms: _29  and  _30
REMARK   15  A    between atoms: _32  and  _34
REMARK   16  A    between atoms: _34  and  _35
REMARK   17  A    between atoms: _37  and  _39
REMARK   18  A    between atoms: _39  and  _40
REMARK   19  A    between atoms: _42  and  _44
REMARK   20  A    between atoms: _44  and  _45
REMARK   21  A    between atoms: _44  and  _47
REMARK   22  A    between atoms: _47  and  _48
REMARK   23  A    between atoms: _54  and  _56
REMARK   24  A    between atoms: _56  and  _57
REMARK   25  A    between atoms: _59  and  _61
REMARK   26  A    between atoms: _61  and  _62
REMARK   27  A    between atoms: _61  and  _64
REMARK   28  A    between atoms: _64  and  _65
REMARK   29  A    between atoms: _67  and  _69
REMARK   30  A    between atoms: _69  and  _70
REMARK   31  A    between atoms: _69  and  _72
REMARK   32  A    between atoms: _75  and  _77
REMARK   33  A    between atoms: _77  and  _78
REMARK   34  A    between atoms: _77  and  _80
REMARK   35  A    between atoms: _80  and  _81
REMARK   36  A    between atoms: _86  and  _87
REMARK   37  A    between atoms: _89  and  _91
REMARK   38  A    between atoms: _91  and  _92
REMARK   39  A    between atoms: _91  and  _94
REMARK   40  A    between atoms: _94  and  _95
REMARK   41  A    between atoms: _97  and  _99
REMARK   42  A    between atoms: _99  and  _100
REMARK   43  A    between atoms: _103  and  _104
REMARK   44  A    between atoms: _109  and  _111
REMARK   45  A    between atoms: _111  and  _112
REMARK   46  A    between atoms: _111  and  _114
REMARK   47  A    between atoms: _117  and  _119
REMARK   48  A    between atoms: _119  and  _120
REMARK   49  A    between atoms: _123  and  _125
REMARK   50  A    between atoms: _125  and  _126
REMARK   51  A    between atoms: _125  and  _128
REMARK   52  A    between atoms: _128  and  _129
REMARK   53  A    between atoms: _132  and  _134
REMARK   54  A    between atoms: _134  and  _135
REMARK   55  A    between atoms: _134  and  _137
REMARK   56  A    between atoms: _137  and  _138
REMARK   57  A    between atoms: _138  and  _139
REMARK   58  A    between atoms: _139  and  _140
REMARK   59  A    between atoms: _140  and  _141
REMARK   60  A    between atoms: _145  and  _147
REMARK   61  A    between atoms: _147  and  _148
REMARK   62  A    between atoms: _147  and  _150
REMARK   63  A    between atoms: _150  and  _151
REMARK   64  A    between atoms: _156  and  _158
REMARK   65  A    between atoms: _158  and  _159
REMARK   66  A    between atoms: _158  and  _161
REMARK   67  A    between atoms: _164  and  _166
REMARK   68  A    between atoms: _166  and  _167
REMARK   69  A    between atoms: _166  and  _169
REMARK   70  A    between atoms: _169  and  _170
REMARK   71  A    between atoms: _170  and  _171
REMARK   72  A    between atoms: _174  and  _176
REMARK   73  A    between atoms: _176  and  _177
REMARK   74  A    between atoms: _176  and  _179
REMARK   75  A    between atoms: _179  and  _180
REMARK   76  A    between atoms: _183  and  _185
REMARK   77  A    between atoms: _185  and  _186
REMARK   78  A    between atoms: _185  and  _188
REMARK   79  A    between atoms: _188  and  _189
REMARK   80  A    between atoms: _192  and  _194
REMARK   81  A    between atoms: _194  and  _195
REMARK   82  A    between atoms: _194  and  _197
REMARK   83  A    between atoms: _197  and  _198
REMARK   84  A    between atoms: _198  and  _199
REMARK   85  A    between atoms: _199  and  _200
REMARK   86  A    between atoms: _209  and  _211
REMARK   87  A    between atoms: _211  and  _212
REMARK   88  A    between atoms: _211  and  _214
REMARK   89  A    between atoms: _214  and  _215
REMARK   90  A    between atoms: _218  and  _220
REMARK   91  A    between atoms: _220  and  _221
REMARK   92  A    between atoms: _220  and  _223
REMARK   93  A    between atoms: _223  and  _224
REMARK   94  A    between atoms: _227  and  _229
REMARK   95  A    between atoms: _229  and  _230
REMARK   96  A    between atoms: _229  and  _232
REMARK   97  A    between atoms: _232  and  _233
REMARK   98  A    between atoms: _236  and  _238
REMARK   99  A    between atoms: _238  and  _239
REMARK  100  A    between atoms: _238  and  _241
REMARK  101  A    between atoms: _241  and  _242
REMARK  102  A    between atoms: _245  and  _247
REMARK  103  A    between atoms: _247  and  _248
REMARK  104  A    between atoms: _247  and  _250
REMARK  105  A    between atoms: _250  and  _251
REMARK  106  A    between atoms: _251  and  _252
REMARK  107  A    between atoms: _255  and  _257
REMARK  108  A    between atoms: _257  and  _258
REMARK  109  A    between atoms: _257  and  _260
REMARK  110  A    between atoms: _260  and  _261
REMARK  111  A    between atoms: _261  and  _262
REMARK  112  A    between atoms: _262  and  _263
REMARK  113  A    between atoms: _273  and  _274
REMARK  114  A    between atoms: _279  and  _281
REMARK  115  A    between atoms: _281  and  _282
REMARK  116  A    between atoms: _281  and  _284
REMARK  117  A    between atoms: _284  and  _285
REMARK  118  A    between atoms: _285  and  _286
REMARK  119  A    between atoms: _290  and  _291
REMARK  120  A    between atoms: _296  and  _298
REMARK  121  A    between atoms: _298  and  _299
REMARK  122  A    between atoms: _298  and  _301
REMARK  123  A    between atoms: _304  and  _306
REMARK  124  A    between atoms: _306  and  _307
REMARK  125  A    between atoms: _306  and  _309
REMARK  126  A    between atoms: _309  and  _310
REMARK  127  A    between atoms: _310  and  _311
REMARK  128  A    between atoms: _316  and  _318
REMARK  129  A    between atoms: _318  and  _319
REMARK  130  A    between atoms: _318  and  _321
REMARK  131  A    between atoms: _321  and  _322
REMARK  132  A    between atoms: _325  and  _327
REMARK  133  A    between atoms: _327  and  _328
REMARK  134  A    between atoms: _327  and  _330
REMARK  135  A    between atoms: _330  and  _331
REMARK  136  A    between atoms: _334  and  _336
REMARK  137  A    between atoms: _336  and  _337
REMARK  138  A    between atoms: _336  and  _339
REMARK  139  A    between atoms: _339  and  _340
REMARK  140  A    between atoms: _346  and  _348
REMARK  141  A    between atoms: _348  and  _349
REMARK  142  A    between atoms: _348  and  _351
REMARK  143  A    between atoms: _351  and  _352
REMARK  144  A    between atoms: _355  and  _357
REMARK  145  A    between atoms: _357  and  _358
REMARK  146  A    between atoms: _357  and  _360
REMARK  147  A    between atoms: _360  and  _361
REMARK  148  A    between atoms: _367  and  _369
REMARK  149  A    between atoms: _369  and  _370
REMARK  150  A    between atoms: _369  and  _372
REMARK  151  A    between atoms: _372  and  _373
REMARK  152  A    between atoms: _376  and  _378
REMARK  153  A    between atoms: _378  and  _379
REMARK  154  A    between atoms: _378  and  _381
REMARK  155  A    between atoms: _381  and  _382
REMARK  156  A    between atoms: _385  and  _387
REMARK  157  A    between atoms: _387  and  _388
REMARK  158  A    between atoms: _387  and  _390
REMARK  159  A    between atoms: _390  and  _391
REMARK  160  A    between atoms: _391  and  _392
REMARK  161  A    between atoms: _395  and  _397
REMARK  162  A    between atoms: _397  and  _398
REMARK  163  A    between atoms: _397  and  _400
REMARK  164  A    between atoms: _400  and  _401
REMARK  165  A    between atoms: _406  and  _408
REMARK  166  A    between atoms: _408  and  _409
REMARK  167  A    between atoms: _408  and  _411
REMARK  168  A    between atoms: _411  and  _412
REMARK  169  A    between atoms: _415  and  _417
REMARK  170  A    between atoms: _417  and  _418
REMARK  171  A    between atoms: _417  and  _420
REMARK  172  A    between atoms: _420  and  _421
REMARK  173  A    between atoms: _424  and  _426
REMARK  174  A    between atoms: _426  and  _427
REMARK  175  A    between atoms: _426  and  _429
REMARK  176  A    between atoms: _429  and  _430
REMARK  177  A    between atoms: _433  and  _435
REMARK  178  A    between atoms: _435  and  _436
REMARK  179  A    between atoms: _435  and  _438
REMARK  180  A    between atoms: _438  and  _439
REMARK  181  A    between atoms: _442  and  _444
REMARK  182  A    between atoms: _444  and  _445
REMARK  183  A    between atoms: _444  and  _447
REMARK  184  A    between atoms: _447  and  _448
REMARK  185  A    between atoms: _451  and  _453
REMARK  186  A    between atoms: _453  and  _454
REMARK  187  A    between atoms: _453  and  _456
REMARK  188  A    between atoms: _456  and  _457
REMARK  189  A    between atoms: _457  and  _458
REMARK  190  A    between atoms: _458  and  _459
REMARK  191  A    between atoms: _459  and  _460
REMARK  192  A    between atoms: _464  and  _466
REMARK  193  A    between atoms: _466  and  _467
REMARK  194  A    between atoms: _466  and  _469
REMARK  195  A    between atoms: _469  and  _470
REMARK  196  A    between atoms: _473  and  _475
REMARK  197  A    between atoms: _475  and  _476
REMARK  198  A    between atoms: _475  and  _478
REMARK  199  A    between atoms: _478  and  _479
REMARK  200  A    between atoms: _482  and  _484
REMARK  201  A    between atoms: _484  and  _485
REMARK  202  A    between atoms: _484  and  _487
REMARK  203  A    between atoms: _487  and  _488
REMARK  204  A    between atoms: _491  and  _493
REMARK  205  A    between atoms: _493  and  _494
REMARK  206  A    between atoms: _493  and  _496
REMARK  207  A    between atoms: _496  and  _497
REMARK  208  A    between atoms: _503  and  _505
REMARK  209  A    between atoms: _505  and  _506
REMARK  210  A    between atoms: _508  and  _510
REMARK  211  A    between atoms: _510  and  _511
REMARK  212  A    between atoms: _510  and  _513
REMARK  213  A    between atoms: _513  and  _514
REMARK                            x       y       z     vdW  Elec       q    Type
REMARK                         _______ _______ _______ _____ _____    ______ ____
ROOT
ATOM      1  O   HOH     1     -26.028 -42.133  -5.350  0.00  0.00    +0.000 OA
ENDROOT
TORSDOF 0
REMARK  Name = ../refined-set-2016/4k18/4k18_pocket.pdb
REMARK  213 active torsions:
REMARK  status: ('A' for Active; 'I' for Inactive)
REMARK    1  A    between atoms: _1  and  _3
REMARK    2  A    between atoms: _3  and  _4
REMARK    3  A    between atoms: _3  and  _6
REMARK    4  A    between atoms: _6  and  _7
REMARK    5  A    between atoms: _10  and  _12
REMARK    6  A    between atoms: _12  and  _13
REMARK    7  A    between atoms: _12  and  _15
REMARK    8  A    between atoms: _15  and  _16
REMARK    9  A    between atoms: _19  and  _21
REMARK   10  A    between atoms: _21  and  _22
REMARK   11  A    between atoms: _24  and  _26
REMARK   12  A    between atoms: _26  and  _27
REMARK   13  A    between atoms: _26  and  _29
REMARK   14  A    between atoms: _29  and  _30
REMARK   15  A    between atoms: _32  and  _34
REMARK   16  A    between atoms: _34  and  _35
REMARK   17  A    between atoms: _37  and  _39
REMARK   18  A    between atoms: _39  and  _40
REMARK   19  A    between atoms: _42  and  _44
REMARK   20  A    between atoms: _44  and  _45
REMARK   21  A    between atoms: _44  and  _47
REMARK   22  A    between atoms: _47  and  _48
REMARK   23  A    between atoms: _54  and  _56
REMARK   24  A    between atoms: _56  and  _57
REMARK   25  A    between atoms: _59  and  _61
REMARK   26  A    between atoms: _61  and  _62
REMARK   27  A    between atoms: _61  and  _64
REMARK   28  A    between atoms: _64  and  _65
REMARK   29  A    between atoms: _67  and  _69
REMARK   30  A    between atoms: _69  and  _70
REMARK   31  A    between atoms: _69  and  _72
REMARK   32  A    between atoms: _75  and  _77
REMARK   33  A    between atoms: _77  and  _78
REMARK   34  A    between atoms: _77  and  _80
REMARK   35  A    between atoms: _80  and  _81
REMARK   36  A    between atoms: _86  and  _87
REMARK   37  A    between atoms: _89  and  _91
REMARK   38  A    between atoms: _91  and  _92
REMARK   39  A    between atoms: _91  and  _94
REMARK   40  A    between atoms: _94  and  _95
REMARK   41  A    between atoms: _97  and  _99
REMARK   42  A    between atoms: _99  and  _100
REMARK   43  A    between atoms: _103  and  _104
REMARK   44  A    between atoms: _109  and  _111
REMARK   45  A    between atoms: _111  and  _112
REMARK   46  A    between atoms: _111  and  _114
REMARK   47  A    between atoms: _117  and  _119
REMARK   48  A    between atoms: _119  and  _120
REMARK   49  A    between atoms: _123  and  _125
REMARK   50  A    between atoms: _125  and  _126
REMARK   51  A    between atoms: _125  and  _128
REMARK   52  A    between atoms: _128  and  _129
REMARK   53  A    between atoms: _132  and  _134
REMARK   54  A    between atoms: _134  and  _135
REMARK   55  A    between atoms: _134  and  _137
REMARK   56  A    between atoms: _137  and  _138
REMARK   57  A    between atoms: _138  and  _139
REMARK   58  A    between atoms: _139  and  _140
REMARK   59  A    between atoms: _140  and  _141
REMARK   60  A    between atoms: _145  and  _147
REMARK   61  A    between atoms: _147  and  _148
REMARK   62  A    between atoms: _147  and  _150
REMARK   63  A    between atoms: _150  and  _151
REMARK   64  A    between atoms: _156  and  _158
REMARK   65  A    between atoms: _158  and  _159
REMARK   66  A    between atoms: _158  and  _161
REMARK   67  A    between atoms: _164  and  _166
REMARK   68  A    between atoms: _166  and  _167
REMARK   69  A    between atoms: _166  and  _169
REMARK   70  A    between atoms: _169  and  _170
REMARK   71  A    between atoms: _170  and  _171
REMARK   72  A    between atoms: _174  and  _176
REMARK   73  A    between atoms: _176  and  _177
REMARK   74  A    between atoms: _176  and  _179
REMARK   75  A    between atoms: _179  and  _180
REMARK   76  A    between atoms: _183  and  _185
REMARK   77  A    between atoms: _185  and  _186
REMARK   78  A    between atoms: _185  and  _188
REMARK   79  A    between atoms: _188  and  _189
REMARK   80  A    between atoms: _192  and  _194
REMARK   81  A    between atoms: _194  and  _195
REMARK   82  A    between atoms: _194  and  _197
REMARK   83  A    between atoms: _197  and  _198
REMARK   84  A    between atoms: _198  and  _199
REMARK   85  A    between atoms: _199  and  _200
REMARK   86  A    between atoms: _209  and  _211
REMARK   87  A    between atoms: _211  and  _212
REMARK   88  A    between atoms: _211  and  _214
REMARK   89  A    between atoms: _214  and  _215
REMARK   90  A    between atoms: _218  and  _220
REMARK   91  A    between atoms: _220  and  _221
REMARK   92  A    between atoms: _220  and  _223
REMARK   93  A    between atoms: _223  and  _224
REMARK   94  A    between atoms: _227  and  _229
REMARK   95  A    between atoms: _229  and  _230
REMARK   96  A    between atoms: _229  and  _232
REMARK   97  A    between atoms: _232  and  _233
REMARK   98  A    between atoms: _236  and  _238
REMARK   99  A    between atoms: _238  and  _239
REMARK  100  A    between atoms: _238  and  _241
REMARK  101  A    between atoms: _241  and  _242
REMARK  102  A    between atoms: _245  and  _247
REMARK  103  A    between atoms: _247  and  _248
REMARK  104  A    between atoms: _247  and  _250
REMARK  105  A    between atoms: _250  and  _251
REMARK  106  A    between atoms: _251  and  _252
REMARK  107  A    between atoms: _255  and  _257
REMARK  108  A    between atoms: _257  and  _258
REMARK  109  A    between atoms: _257  and  _260
REMARK  110  A    between atoms: _260  and  _261
REMARK  111  A    between atoms: _261  and  _262
REMARK  112  A    between atoms: _262  and  _263
REMARK  113  A    between atoms: _273  and  _274
REMARK  114  A    between atoms: _279  and  _281
REMARK  115  A    between atoms: _281  and  _282
REMARK  116  A    between atoms: _281  and  _284
REMARK  117  A    between atoms: _284  and  _285
REMARK  118  A    between atoms: _285  and  _286
REMARK  119  A    between atoms: _290  and  _291
REMARK  120  A    between atoms: _296  and  _298
REMARK  121  A    between atoms: _298  and  _299
REMARK  122  A    between atoms: _298  and  _301
REMARK  123  A    between atoms: _304  and  _306
REMARK  124  A    between atoms: _306  and  _307
REMARK  125  A    between atoms: _306  and  _309
REMARK  126  A    between atoms: _309  and  _310
REMARK  127  A    between atoms: _310  and  _311
REMARK  128  A    between atoms: _316  and  _318
REMARK  129  A    between atoms: _318  and  _319
REMARK  130  A    between atoms: _318  and  _321
REMARK  131  A    between atoms: _321  and  _322
REMARK  132  A    between atoms: _325  and  _327
REMARK  133  A    between atoms: _327  and  _328
REMARK  134  A    between atoms: _327  and  _330
REMARK  135  A    between atoms: _330  and  _331
REMARK  136  A    between atoms: _334  and  _336
REMARK  137  A    between atoms: _336  and  _337
REMARK  138  A    between atoms: _336  and  _339
REMARK  139  A    between atoms: _339  and  _340
REMARK  140  A    between atoms: _346  and  _348
REMARK  141  A    between atoms: _348  and  _349
REMARK  142  A    between atoms: _348  and  _351
REMARK  143  A    between atoms: _351  and  _352
REMARK  144  A    between atoms: _355  and  _357
REMARK  145  A    between atoms: _357  and  _358
REMARK  146  A    between atoms: _357  and  _360
REMARK  147  A    between atoms: _360  and  _361
REMARK  148  A    between atoms: _367  and  _369
REMARK  149  A    between atoms: _369  and  _370
REMARK  150  A    between atoms: _369  and  _372
REMARK  151  A    between atoms: _372  and  _373
REMARK  152  A    between atoms: _376  and  _378
REMARK  153  A    between atoms: _378  and  _379
REMARK  154  A    between atoms: _378  and  _381
REMARK  155  A    between atoms: _381  and  _382
REMARK  156  A    between atoms: _385  and  _387
REMARK  157  A    between atoms: _387  and  _388
REMARK  158  A    between atoms: _387  and  _390
REMARK  159  A    between atoms: _390  and  _391
REMARK  160  A    between atoms: _391  and  _392
REMARK  161  A    between atoms: _395  and  _397
REMARK  162  A    between atoms: _397  and  _398
REMARK  163  A    between atoms: _397  and  _400
REMARK  164  A    between atoms: _400  and  _401
REMARK  165  A    between atoms: _406  and  _408
REMARK  166  A    between atoms: _408  and  _409
REMARK  167  A    between atoms: _408  and  _411
REMARK  168  A    between atoms: _411  and  _412
REMARK  169  A    between atoms: _415  and  _417
REMARK  170  A    between atoms: _417  and  _418
REMARK  171  A    between atoms: _417  and  _420
REMARK  172  A    between atoms: _420  and  _421
REMARK  173  A    between atoms: _424  and  _426
REMARK  174  A    between atoms: _426  and  _427
REMARK  175  A    between atoms: _426  and  _429
REMARK  176  A    between atoms: _429  and  _430
REMARK  177  A    between atoms: _433  and  _435
REMARK  178  A    between atoms: _435  and  _436
REMARK  179  A    between atoms: _435  and  _438
REMARK  180  A    between atoms: _438  and  _439
REMARK  181  A    between atoms: _442  and  _444
REMARK  182  A    between atoms: _444  and  _445
REMARK  183  A    between atoms: _444  and  _447
REMARK  184  A    between atoms: _447  and  _448
REMARK  185  A    between atoms: _451  and  _453
REMARK  186  A    between atoms: _453  and  _454
REMARK  187  A    between atoms: _453  and  _456
REMARK  188  A    between atoms: _456  and  _457
REMARK  189  A    between atoms: _457  and  _458
REMARK  190  A    between atoms: _458  and  _459
REMARK  191  A    between atoms: _459  and  _460
REMARK  192  A    between atoms: _464  and  _466
REMARK  193  A    between atoms: _466  and  _467
REMARK  194  A    between atoms: _466  and  _469
REMARK  195  A    between atoms: _469  and  _470
REMARK  196  A    between atoms: _473  and  _475
REMARK  197  A    between atoms: _475  and  _476
REMARK  198  A    between atoms: _475  and  _478
REMARK  199  A    between atoms: _478  and  _479
REMARK  200  A    between atoms: _482  and  _484
REMARK  201  A    between atoms: _484  and  _485
REMARK  202  A    between atoms: _484  and  _487
REMARK  203  A    between atoms: _487  and  _488
REMARK  204  A    between atoms: _491  and  _493
REMARK  205  A    between atoms: _493  and  _494
REMARK  206  A    between atoms: _493  and  _496
REMARK  207  A    between atoms: _496  and  _497
REMARK  208  A    between atoms: _503  and  _505
REMARK  209  A    between atoms: _505  and  _506
REMARK  210  A    between atoms: _508  and  _510
REMARK  211  A    between atoms: _510  and  _511
REMARK  212  A    between atoms: _510  and  _513
REMARK  213  A    between atoms: _513  and  _514
REMARK                            x       y       z     vdW  Elec       q    Type
REMARK                         _______ _______ _______ _____ _____    ______ ____
ROOT
ATOM      1  O   HOH     1     -25.807 -39.896   4.459  0.00  0.00    +0.000 OA
ENDROOT
TORSDOF 0
REMARK  Name = ../refined-set-2016/4k18/4k18_pocket.pdb
REMARK  213 active torsions:
REMARK  status: ('A' for Active; 'I' for Inactive)
REMARK    1  A    between atoms: _1  and  _3
REMARK    2  A    between atoms: _3  and  _4
REMARK    3  A    between atoms: _3  and  _6
REMARK    4  A    between atoms: _6  and  _7
REMARK    5  A    between atoms: _10  and  _12
REMARK    6  A    between atoms: _12  and  _13
REMARK    7  A    between atoms: _12  and  _15
REMARK    8  A    between atoms: _15  and  _16
REMARK    9  A    between atoms: _19  and  _21
REMARK   10  A    between atoms: _21  and  _22
REMARK   11  A    between atoms: _24  and  _26
REMARK   12  A    between atoms: _26  and  _27
REMARK   13  A    between atoms: _26  and  _29
REMARK   14  A    between atoms: _29  and  _30
REMARK   15  A    between atoms: _32  and  _34
REMARK   16  A    between atoms: _34  and  _35
REMARK   17  A    between atoms: _37  and  _39
REMARK   18  A    between atoms: _39  and  _40
REMARK   19  A    between atoms: _42  and  _44
REMARK   20  A    between atoms: _44  and  _45
REMARK   21  A    between atoms: _44  and  _47
REMARK   22  A    between atoms: _47  and  _48
REMARK   23  A    between atoms: _54  and  _56
REMARK   24  A    between atoms: _56  and  _57
REMARK   25  A    between atoms: _59  and  _61
REMARK   26  A    between atoms: _61  and  _62
REMARK   27  A    between atoms: _61  and  _64
REMARK   28  A    between atoms: _64  and  _65
REMARK   29  A    between atoms: _67  and  _69
REMARK   30  A    between atoms: _69  and  _70
REMARK   31  A    between atoms: _69  and  _72
REMARK   32  A    between atoms: _75  and  _77
REMARK   33  A    between atoms: _77  and  _78
REMARK   34  A    between atoms: _77  and  _80
REMARK   35  A    between atoms: _80  and  _81
REMARK   36  A    between atoms: _86  and  _87
REMARK   37  A    between atoms: _89  and  _91
REMARK   38  A    between atoms: _91  and  _92
REMARK   39  A    between atoms: _91  and  _94
REMARK   40  A    between atoms: _94  and  _95
REMARK   41  A    between atoms: _97  and  _99
REMARK   42  A    between atoms: _99  and  _100
REMARK   43  A    between atoms: _103  and  _104
REMARK   44  A    between atoms: _109  and  _111
REMARK   45  A    between atoms: _111  and  _112
REMARK   46  A    between atoms: _111  and  _114
REMARK   47  A    between atoms: _117  and  _119
REMARK   48  A    between atoms: _119  and  _120
REMARK   49  A    between atoms: _123  and  _125
REMARK   50  A    between atoms: _125  and  _126
REMARK   51  A    between atoms: _125  and  _128
REMARK   52  A    between atoms: _128  and  _129
REMARK   53  A    between atoms: _132  and  _134
REMARK   54  A    between atoms: _134  and  _135
REMARK   55  A    between atoms: _134  and  _137
REMARK   56  A    between atoms: _137  and  _138
REMARK   57  A    between atoms: _138  and  _139
REMARK   58  A    between atoms: _139  and  _140
REMARK   59  A    between atoms: _140  and  _141
REMARK   60  A    between atoms: _145  and  _147
REMARK   61  A    between atoms: _147  and  _148
REMARK   62  A    between atoms: _147  and  _150
REMARK   63  A    between atoms: _150  and  _151
REMARK   64  A    between atoms: _156  and  _158
REMARK   65  A    between atoms: _158  and  _159
REMARK   66  A    between atoms: _158  and  _161
REMARK   67  A    between atoms: _164  and  _166
REMARK   68  A    between atoms: _166  and  _167
REMARK   69  A    between atoms: _166  and  _169
REMARK   70  A    between atoms: _169  and  _170
REMARK   71  A    between atoms: _170  and  _171
REMARK   72  A    between atoms: _174  and  _176
REMARK   73  A    between atoms: _176  and  _177
REMARK   74  A    between atoms: _176  and  _179
REMARK   75  A    between atoms: _179  and  _180
REMARK   76  A    between atoms: _183  and  _185
REMARK   77  A    between atoms: _185  and  _186
REMARK   78  A    between atoms: _185  and  _188
REMARK   79  A    between atoms: _188  and  _189
REMARK   80  A    between atoms: _192  and  _194
REMARK   81  A    between atoms: _194  and  _195
REMARK   82  A    between atoms: _194  and  _197
REMARK   83  A    between atoms: _197  and  _198
REMARK   84  A    between atoms: _198  and  _199
REMARK   85  A    between atoms: _199  and  _200
REMARK   86  A    between atoms: _209  and  _211
REMARK   87  A    between atoms: _211  and  _212
REMARK   88  A    between atoms: _211  and  _214
REMARK   89  A    between atoms: _214  and  _215
REMARK   90  A    between atoms: _218  and  _220
REMARK   91  A    between atoms: _220  and  _221
REMARK   92  A    between atoms: _220  and  _223
REMARK   93  A    between atoms: _223  and  _224
REMARK   94  A    between atoms: _227  and  _229
REMARK   95  A    between atoms: _229  and  _230
REMARK   96  A    between atoms: _229  and  _232
REMARK   97  A    between atoms: _232  and  _233
REMARK   98  A    between atoms: _236  and  _238
REMARK   99  A    between atoms: _238  and  _239
REMARK  100  A    between atoms: _238  and  _241
REMARK  101  A    between atoms: _241  and  _242
REMARK  102  A    between atoms: _245  and  _247
REMARK  103  A    between atoms: _247  and  _248
REMARK  104  A    between atoms: _247  and  _250
REMARK  105  A    between atoms: _250  and  _251
REMARK  106  A    between atoms: _251  and  _252
REMARK  107  A    between atoms: _255  and  _257
REMARK  108  A    between atoms: _257  and  _258
REMARK  109  A    between atoms: _257  and  _260
REMARK  110  A    between atoms: _260  and  _261
REMARK  111  A    between atoms: _261  and  _262
REMARK  112  A    between atoms: _262  and  _263
REMARK  113  A    between atoms: _273  and  _274
REMARK  114  A    between atoms: _279  and  _281
REMARK  115  A    between atoms: _281  and  _282
REMARK  116  A    between atoms: _281  and  _284
REMARK  117  A    between atoms: _284  and  _285
REMARK  118  A    between atoms: _285  and  _286
REMARK  119  A    between atoms: _290  and  _291
REMARK  120  A    between atoms: _296  and  _298
REMARK  121  A    between atoms: _298  and  _299
REMARK  122  A    between atoms: _298  and  _301
REMARK  123  A    between atoms: _304  and  _306
REMARK  124  A    between atoms: _306  and  _307
REMARK  125  A    between atoms: _306  and  _309
REMARK  126  A    between atoms: _309  and  _310
REMARK  127  A    between atoms: _310  and  _311
REMARK  128  A    between atoms: _316  and  _318
REMARK  129  A    between atoms: _318  and  _319
REMARK  130  A    between atoms: _318  and  _321
REMARK  131  A    between atoms: _321  and  _322
REMARK  132  A    between atoms: _325  and  _327
REMARK  133  A    between atoms: _327  and  _328
REMARK  134  A    between atoms: _327  and  _330
REMARK  135  A    between atoms: _330  and  _331
REMARK  136  A    between atoms: _334  and  _336
REMARK  137  A    between atoms: _336  and  _337
REMARK  138  A    between atoms: _336  and  _339
REMARK  139  A    between atoms: _339  and  _340
REMARK  140  A    between atoms: _346  and  _348
REMARK  141  A    between atoms: _348  and  _349
REMARK  142  A    between atoms: _348  and  _351
REMARK  143  A    between atoms: _351  and  _352
REMARK  144  A    between atoms: _355  and  _357
REMARK  145  A    between atoms: _357  and  _358
REMARK  146  A    between atoms: _357  and  _360
REMARK  147  A    between atoms: _360  and  _361
REMARK  148  A    between atoms: _367  and  _369
REMARK  149  A    between atoms: _369  and  _370
REMARK  150  A    between atoms: _369  and  _372
REMARK  151  A    between atoms: _372  and  _373
REMARK  152  A    between atoms: _376  and  _378
REMARK  153  A    between atoms: _378  and  _379
REMARK  154  A    between atoms: _378  and  _381
REMARK  155  A    between atoms: _381  and  _382
REMARK  156  A    between atoms: _385  and  _387
REMARK  157  A    between atoms: _387  and  _388
REMARK  158  A    between atoms: _387  and  _390
REMARK  159  A    between atoms: _390  and  _391
REMARK  160  A    between atoms: _391  and  _392
REMARK  161  A    between atoms: _395  and  _397
REMARK  162  A    between atoms: _397  and  _398
REMARK  163  A    between atoms: _397  and  _400
REMARK  164  A    between atoms: _400  and  _401
REMARK  165  A    between atoms: _406  and  _408
REMARK  166  A    between atoms: _408  and  _409
REMARK  167  A    between atoms: _408  and  _411
REMARK  168  A    between atoms: _411  and  _412
REMARK  169  A    between atoms: _415  and  _417
REMARK  170  A    between atoms: _417  and  _418
REMARK  171  A    between atoms: _417  and  _420
REMARK  172  A    between atoms: _420  and  _421
REMARK  173  A    between atoms: _424  and  _426
REMARK  174  A    between atoms: _426  and  _427
REMARK  175  A    between atoms: _426  and  _429
REMARK  176  A    between atoms: _429  and  _430
REMARK  177  A    between atoms: _433  and  _435
REMARK  178  A    between atoms: _435  and  _436
REMARK  179  A    between atoms: _435  and  _438
REMARK  180  A    between atoms: _438  and  _439
REMARK  181  A    between atoms: _442  and  _444
REMARK  182  A    between atoms: _444  and  _445
REMARK  183  A    between atoms: _444  and  _447
REMARK  184  A    between atoms: _447  and  _448
REMARK  185  A    between atoms: _451  and  _453
REMARK  186  A    between atoms: _453  and  _454
REMARK  187  A    between atoms: _453  and  _456
REMARK  188  A    between atoms: _456  and  _457
REMARK  189  A    between atoms: _457  and  _458
REMARK  190  A    between atoms: _458  and  _459
REMARK  191  A    between atoms: _459  and  _460
REMARK  192  A    between atoms: _464  and  _466
REMARK  193  A    between atoms: _466  and  _467
REMARK  194  A    between atoms: _466  and  _469
REMARK  195  A    between atoms: _469  and  _470
REMARK  196  A    between atoms: _473  and  _475
REMARK  197  A    between atoms: _475  and  _476
REMARK  198  A    between atoms: _475  and  _478
REMARK  199  A    between atoms: _478  and  _479
REMARK  200  A    between atoms: _482  and  _484
REMARK  201  A    between atoms: _484  and  _485
REMARK  202  A    between atoms: _484  and  _487
REMARK  203  A    between atoms: _487  and  _488
REMARK  204  A    between atoms: _491  and  _493
REMARK  205  A    between atoms: _493  and  _494
REMARK  206  A    between atoms: _493  and  _496
REMARK  207  A    between atoms: _496  and  _497
REMARK  208  A    between atoms: _503  and  _505
REMARK  209  A    between atoms: _505  and  _506
REMARK  210  A    between atoms: _508  and  _510
REMARK  211  A    between atoms: _510  and  _511
REMARK  212  A    between atoms: _510  and  _513
REMARK  213  A    between atoms: _513  and  _514
REMARK                            x       y       z     vdW  Elec       q    Type
REMARK                         _______ _______ _______ _____ _____    ______ ____
ROOT
ATOM      1  O   HOH     1     -12.020 -32.730   5.130  0.00  0.00    +0.000 OA
ENDROOT
TORSDOF 0
REMARK  Name = ../refined-set-2016/4k18/4k18_pocket.pdb
REMARK  213 active torsions:
REMARK  status: ('A' for Active; 'I' for Inactive)
REMARK    1  A    between atoms: _1  and  _3
REMARK    2  A    between atoms: _3  and  _4
REMARK    3  A    between atoms: _3  and  _6
REMARK    4  A    between atoms: _6  and  _7
REMARK    5  A    between atoms: _10  and  _12
REMARK    6  A    between atoms: _12  and  _13
REMARK    7  A    between atoms: _12  and  _15
REMARK    8  A    between atoms: _15  and  _16
REMARK    9  A    between atoms: _19  and  _21
REMARK   10  A    between atoms: _21  and  _22
REMARK   11  A    between atoms: _24  and  _26
REMARK   12  A    between atoms: _26  and  _27
REMARK   13  A    between atoms: _26  and  _29
REMARK   14  A    between atoms: _29  and  _30
REMARK   15  A    between atoms: _32  and  _34
REMARK   16  A    between atoms: _34  and  _35
REMARK   17  A    between atoms: _37  and  _39
REMARK   18  A    between atoms: _39  and  _40
REMARK   19  A    between atoms: _42  and  _44
REMARK   20  A    between atoms: _44  and  _45
REMARK   21  A    between atoms: _44  and  _47
REMARK   22  A    between atoms: _47  and  _48
REMARK   23  A    between atoms: _54  and  _56
REMARK   24  A    between atoms: _56  and  _57
REMARK   25  A    between atoms: _59  and  _61
REMARK   26  A    between atoms: _61  and  _62
REMARK   27  A    between atoms: _61  and  _64
REMARK   28  A    between atoms: _64  and  _65
REMARK   29  A    between atoms: _67  and  _69
REMARK   30  A    between atoms: _69  and  _70
REMARK   31  A    between atoms: _69  and  _72
REMARK   32  A    between atoms: _75  and  _77
REMARK   33  A    between atoms: _77  and  _78
REMARK   34  A    between atoms: _77  and  _80
REMARK   35  A    between atoms: _80  and  _81
REMARK   36  A    between atoms: _86  and  _87
REMARK   37  A    between atoms: _89  and  _91
REMARK   38  A    between atoms: _91  and  _92
REMARK   39  A    between atoms: _91  and  _94
REMARK   40  A    between atoms: _94  and  _95
REMARK   41  A    between atoms: _97  and  _99
REMARK   42  A    between atoms: _99  and  _100
REMARK   43  A    between atoms: _103  and  _104
REMARK   44  A    between atoms: _109  and  _111
REMARK   45  A    between atoms: _111  and  _112
REMARK   46  A    between atoms: _111  and  _114
REMARK   47  A    between atoms: _117  and  _119
REMARK   48  A    between atoms: _119  and  _120
REMARK   49  A    between atoms: _123  and  _125
REMARK   50  A    between atoms: _125  and  _126
REMARK   51  A    between atoms: _125  and  _128
REMARK   52  A    between atoms: _128  and  _129
REMARK   53  A    between atoms: _132  and  _134
REMARK   54  A    between atoms: _134  and  _135
REMARK   55  A    between atoms: _134  and  _137
REMARK   56  A    between atoms: _137  and  _138
REMARK   57  A    between atoms: _138  and  _139
REMARK   58  A    between atoms: _139  and  _140
REMARK   59  A    between atoms: _140  and  _141
REMARK   60  A    between atoms: _145  and  _147
REMARK   61  A    between atoms: _147  and  _148
REMARK   62  A    between atoms: _147  and  _150
REMARK   63  A    between atoms: _150  and  _151
REMARK   64  A    between atoms: _156  and  _158
REMARK   65  A    between atoms: _158  and  _159
REMARK   66  A    between atoms: _158  and  _161
REMARK   67  A    between atoms: _164  and  _166
REMARK   68  A    between atoms: _166  and  _167
REMARK   69  A    between atoms: _166  and  _169
REMARK   70  A    between atoms: _169  and  _170
REMARK   71  A    between atoms: _170  and  _171
REMARK   72  A    between atoms: _174  and  _176
REMARK   73  A    between atoms: _176  and  _177
REMARK   74  A    between atoms: _176  and  _179
REMARK   75  A    between atoms: _179  and  _180
REMARK   76  A    between atoms: _183  and  _185
REMARK   77  A    between atoms: _185  and  _186
REMARK   78  A    between atoms: _185  and  _188
REMARK   79  A    between atoms: _188  and  _189
REMARK   80  A    between atoms: _192  and  _194
REMARK   81  A    between atoms: _194  and  _195
REMARK   82  A    between atoms: _194  and  _197
REMARK   83  A    between atoms: _197  and  _198
REMARK   84  A    between atoms: _198  and  _199
REMARK   85  A    between atoms: _199  and  _200
REMARK   86  A    between atoms: _209  and  _211
REMARK   87  A    between atoms: _211  and  _212
REMARK   88  A    between atoms: _211  and  _214
REMARK   89  A    between atoms: _214  and  _215
REMARK   90  A    between atoms: _218  and  _220
REMARK   91  A    between atoms: _220  and  _221
REMARK   92  A    between atoms: _220  and  _223
REMARK   93  A    between atoms: _223  and  _224
REMARK   94  A    between atoms: _227  and  _229
REMARK   95  A    between atoms: _229  and  _230
REMARK   96  A    between atoms: _229  and  _232
REMARK   97  A    between atoms: _232  and  _233
REMARK   98  A    between atoms: _236  and  _238
REMARK   99  A    between atoms: _238  and  _239
REMARK  100  A    between atoms: _238  and  _241
REMARK  101  A    between atoms: _241  and  _242
REMARK  102  A    between atoms: _245  and  _247
REMARK  103  A    between atoms: _247  and  _248
REMARK  104  A    between atoms: _247  and  _250
REMARK  105  A    between atoms: _250  and  _251
REMARK  106  A    between atoms: _251  and  _252
REMARK  107  A    between atoms: _255  and  _257
REMARK  108  A    between atoms: _257  and  _258
REMARK  109  A    between atoms: _257  and  _260
REMARK  110  A    between atoms: _260  and  _261
REMARK  111  A    between atoms: _261  and  _262
REMARK  112  A    between atoms: _262  and  _263
REMARK  113  A    between atoms: _273  and  _274
REMARK  114  A    between atoms: _279  and  _281
REMARK  115  A    between atoms: _281  and  _282
REMARK  116  A    between atoms: _281  and  _284
REMARK  117  A    between atoms: _284  and  _285
REMARK  118  A    between atoms: _285  and  _286
REMARK  119  A    between atoms: _290  and  _291
REMARK  120  A    between atoms: _296  and  _298
REMARK  121  A    between atoms: _298  and  _299
REMARK  122  A    between atoms: _298  and  _301
REMARK  123  A    between atoms: _304  and  _306
REMARK  124  A    between atoms: _306  and  _307
REMARK  125  A    between atoms: _306  and  _309
REMARK  126  A    between atoms: _309  and  _310
REMARK  127  A    between atoms: _310  and  _311
REMARK  128  A    between atoms: _316  and  _318
REMARK  129  A    between atoms: _318  and  _319
REMARK  130  A    between atoms: _318  and  _321
REMARK  131  A    between atoms: _321  and  _322
REMARK  132  A    between atoms: _325  and  _327
REMARK  133  A    between atoms: _327  and  _328
REMARK  134  A    between atoms: _327  and  _330
REMARK  135  A    between atoms: _330  and  _331
REMARK  136  A    between atoms: _334  and  _336
REMARK  137  A    between atoms: _336  and  _337
REMARK  138  A    between atoms: _336  and  _339
REMARK  139  A    between atoms: _339  and  _340
REMARK  140  A    between atoms: _346  and  _348
REMARK  141  A    between atoms: _348  and  _349
REMARK  142  A    between atoms: _348  and  _351
REMARK  143  A    between atoms: _351  and  _352
REMARK  144  A    between atoms: _355  and  _357
REMARK  145  A    between atoms: _357  and  _358
REMARK  146  A    between atoms: _357  and  _360
REMARK  147  A    between atoms: _360  and  _361
REMARK  148  A    between atoms: _367  and  _369
REMARK  149  A    between atoms: _369  and  _370
REMARK  150  A    between atoms: _369  and  _372
REMARK  151  A    between atoms: _372  and  _373
REMARK  152  A    between atoms: _376  and  _378
REMARK  153  A    between atoms: _378  and  _379
REMARK  154  A    between atoms: _378  and  _381
REMARK  155  A    between atoms: _381  and  _382
REMARK  156  A    between atoms: _385  and  _387
REMARK  157  A    between atoms: _387  and  _388
REMARK  158  A    between atoms: _387  and  _390
REMARK  159  A    between atoms: _390  and  _391
REMARK  160  A    between atoms: _391  and  _392
REMARK  161  A    between atoms: _395  and  _397
REMARK  162  A    between atoms: _397  and  _398
REMARK  163  A    between atoms: _397  and  _400
REMARK  164  A    between atoms: _400  and  _401
REMARK  165  A    between atoms: _406  and  _408
REMARK  166  A    between atoms: _408  and  _409
REMARK  167  A    between atoms: _408  and  _411
REMARK  168  A    between atoms: _411  and  _412
REMARK  169  A    between atoms: _415  and  _417
REMARK  170  A    between atoms: _417  and  _418
REMARK  171  A    between atoms: _417  and  _420
REMARK  172  A    between atoms: _420  and  _421
REMARK  173  A    between atoms: _424  and  _426
REMARK  174  A    between atoms: _426  and  _427
REMARK  175  A    between atoms: _426  and  _429
REMARK  176  A    between atoms: _429  and  _430
REMARK  177  A    between atoms: _433  and  _435
REMARK  178  A    between atoms: _435  and  _436
REMARK  179  A    between atoms: _435  and  _438
REMARK  180  A    between atoms: _438  and  _439
REMARK  181  A    between atoms: _442  and  _444
REMARK  182  A    between atoms: _444  and  _445
REMARK  183  A    between atoms: _444  and  _447
REMARK  184  A    between atoms: _447  and  _448
REMARK  185  A    between atoms: _451  and  _453
REMARK  186  A    between atoms: _453  and  _454
REMARK  187  A    between atoms: _453  and  _456
REMARK  188  A    between atoms: _456  and  _457
REMARK  189  A    between atoms: _457  and  _458
REMARK  190  A    between atoms: _458  and  _459
REMARK  191  A    between atoms: _459  and  _460
REMARK  192  A    between atoms: _464  and  _466
REMARK  193  A    between atoms: _466  and  _467
REMARK  194  A    between atoms: _466  and  _469
REMARK  195  A    between atoms: _469  and  _470
REMARK  196  A    between atoms: _473  and  _475
REMARK  197  A    between atoms: _475  and  _476
REMARK  198  A    between atoms: _475  and  _478
REMARK  199  A    between atoms: _478  and  _479
REMARK  200  A    between atoms: _482  and  _484
REMARK  201  A    between atoms: _484  and  _485
REMARK  202  A    between atoms: _484  and  _487
REMARK  203  A    between atoms: _487  and  _488
REMARK  204  A    between atoms: _491  and  _493
REMARK  205  A    between atoms: _493  and  _494
REMARK  206  A    between atoms: _493  and  _496
REMARK  207  A    between atoms: _496  and  _497
REMARK  208  A    between atoms: _503  and  _505
REMARK  209  A    between atoms: _505  and  _506
REMARK  210  A    between atoms: _508  and  _510
REMARK  211  A    between atoms: _510  and  _511
REMARK  212  A    between atoms: _510  and  _513
REMARK  213  A    between atoms: _513  and  _514
REMARK                            x       y       z     vdW  Elec       q    Type
REMARK                         _______ _______ _______ _____ _____    ______ ____
ROOT
ATOM      1  O   HOH     1     -28.755 -38.770   4.904  0.00  0.00    +0.000 OA
ENDROOT
TORSDOF 0
REMARK  Name = ../refined-set-2016/4k18/4k18_pocket.pdb
REMARK  213 active torsions:
REMARK  status: ('A' for Active; 'I' for Inactive)
REMARK    1  A    between atoms: _1  and  _3
REMARK    2  A    between atoms: _3  and  _4
REMARK    3  A    between atoms: _3  and  _6
REMARK    4  A    between atoms: _6  and  _7
REMARK    5  A    between atoms: _10  and  _12
REMARK    6  A    between atoms: _12  and  _13
REMARK    7  A    between atoms: _12  and  _15
REMARK    8  A    between atoms: _15  and  _16
REMARK    9  A    between atoms: _19  and  _21
REMARK   10  A    between atoms: _21  and  _22
REMARK   11  A    between atoms: _24  and  _26
REMARK   12  A    between atoms: _26  and  _27
REMARK   13  A    between atoms: _26  and  _29
REMARK   14  A    between atoms: _29  and  _30
REMARK   15  A    between atoms: _32  and  _34
REMARK   16  A    between atoms: _34  and  _35
REMARK   17  A    between atoms: _37  and  _39
REMARK   18  A    between atoms: _39  and  _40
REMARK   19  A    between atoms: _42  and  _44
REMARK   20  A    between atoms: _44  and  _45
REMARK   21  A    between atoms: _44  and  _47
REMARK   22  A    between atoms: _47  and  _48
REMARK   23  A    between atoms: _54  and  _56
REMARK   24  A    between atoms: _56  and  _57
REMARK   25  A    between atoms: _59  and  _61
REMARK   26  A    between atoms: _61  and  _62
REMARK   27  A    between atoms: _61  and  _64
REMARK   28  A    between atoms: _64  and  _65
REMARK   29  A    between atoms: _67  and  _69
REMARK   30  A    between atoms: _69  and  _70
REMARK   31  A    between atoms: _69  and  _72
REMARK   32  A    between atoms: _75  and  _77
REMARK   33  A    between atoms: _77  and  _78
REMARK   34  A    between atoms: _77  and  _80
REMARK   35  A    between atoms: _80  and  _81
REMARK   36  A    between atoms: _86  and  _87
REMARK   37  A    between atoms: _89  and  _91
REMARK   38  A    between atoms: _91  and  _92
REMARK   39  A    between atoms: _91  and  _94
REMARK   40  A    between atoms: _94  and  _95
REMARK   41  A    between atoms: _97  and  _99
REMARK   42  A    between atoms: _99  and  _100
REMARK   43  A    between atoms: _103  and  _104
REMARK   44  A    between atoms: _109  and  _111
REMARK   45  A    between atoms: _111  and  _112
REMARK   46  A    between atoms: _111  and  _114
REMARK   47  A    between atoms: _117  and  _119
REMARK   48  A    between atoms: _119  and  _120
REMARK   49  A    between atoms: _123  and  _125
REMARK   50  A    between atoms: _125  and  _126
REMARK   51  A    between atoms: _125  and  _128
REMARK   52  A    between atoms: _128  and  _129
REMARK   53  A    between atoms: _132  and  _134
REMARK   54  A    between atoms: _134  and  _135
REMARK   55  A    between atoms: _134  and  _137
REMARK   56  A    between atoms: _137  and  _138
REMARK   57  A    between atoms: _138  and  _139
REMARK   58  A    between atoms: _139  and  _140
REMARK   59  A    between atoms: _140  and  _141
REMARK   60  A    between atoms: _145  and  _147
REMARK   61  A    between atoms: _147  and  _148
REMARK   62  A    between atoms: _147  and  _150
REMARK   63  A    between atoms: _150  and  _151
REMARK   64  A    between atoms: _156  and  _158
REMARK   65  A    between atoms: _158  and  _159
REMARK   66  A    between atoms: _158  and  _161
REMARK   67  A    between atoms: _164  and  _166
REMARK   68  A    between atoms: _166  and  _167
REMARK   69  A    between atoms: _166  and  _169
REMARK   70  A    between atoms: _169  and  _170
REMARK   71  A    between atoms: _170  and  _171
REMARK   72  A    between atoms: _174  and  _176
REMARK   73  A    between atoms: _176  and  _177
REMARK   74  A    between atoms: _176  and  _179
REMARK   75  A    between atoms: _179  and  _180
REMARK   76  A    between atoms: _183  and  _185
REMARK   77  A    between atoms: _185  and  _186
REMARK   78  A    between atoms: _185  and  _188
REMARK   79  A    between atoms: _188  and  _189
REMARK   80  A    between atoms: _192  and  _194
REMARK   81  A    between atoms: _194  and  _195
REMARK   82  A    between atoms: _194  and  _197
REMARK   83  A    between atoms: _197  and  _198
REMARK   84  A    between atoms: _198  and  _199
REMARK   85  A    between atoms: _199  and  _200
REMARK   86  A    between atoms: _209  and  _211
REMARK   87  A    between atoms: _211  and  _212
REMARK   88  A    between atoms: _211  and  _214
REMARK   89  A    between atoms: _214  and  _215
REMARK   90  A    between atoms: _218  and  _220
REMARK   91  A    between atoms: _220  and  _221
REMARK   92  A    between atoms: _220  and  _223
REMARK   93  A    between atoms: _223  and  _224
REMARK   94  A    between atoms: _227  and  _229
REMARK   95  A    between atoms: _229  and  _230
REMARK   96  A    between atoms: _229  and  _232
REMARK   97  A    between atoms: _232  and  _233
REMARK   98  A    between atoms: _236  and  _238
REMARK   99  A    between atoms: _238  and  _239
REMARK  100  A    between atoms: _238  and  _241
REMARK  101  A    between atoms: _241  and  _242
REMARK  102  A    between atoms: _245  and  _247
REMARK  103  A    between atoms: _247  and  _248
REMARK  104  A    between atoms: _247  and  _250
REMARK  105  A    between atoms: _250  and  _251
REMARK  106  A    between atoms: _251  and  _252
REMARK  107  A    between atoms: _255  and  _257
REMARK  108  A    between atoms: _257  and  _258
REMARK  109  A    between atoms: _257  and  _260
REMARK  110  A    between atoms: _260  and  _261
REMARK  111  A    between atoms: _261  and  _262
REMARK  112  A    between atoms: _262  and  _263
REMARK  113  A    between atoms: _273  and  _274
REMARK  114  A    between atoms: _279  and  _281
REMARK  115  A    between atoms: _281  and  _282
REMARK  116  A    between atoms: _281  and  _284
REMARK  117  A    between atoms: _284  and  _285
REMARK  118  A    between atoms: _285  and  _286
REMARK  119  A    between atoms: _290  and  _291
REMARK  120  A    between atoms: _296  and  _298
REMARK  121  A    between atoms: _298  and  _299
REMARK  122  A    between atoms: _298  and  _301
REMARK  123  A    between atoms: _304  and  _306
REMARK  124  A    between atoms: _306  and  _307
REMARK  125  A    between atoms: _306  and  _309
REMARK  126  A    between atoms: _309  and  _310
REMARK  127  A    between atoms: _310  and  _311
REMARK  128  A    between atoms: _316  and  _318
REMARK  129  A    between atoms: _318  and  _319
REMARK  130  A    between atoms: _318  and  _321
REMARK  131  A    between atoms: _321  and  _322
REMARK  132  A    between atoms: _325  and  _327
REMARK  133  A    between atoms: _327  and  _328
REMARK  134  A    between atoms: _327  and  _330
REMARK  135  A    between atoms: _330  and  _331
REMARK  136  A    between atoms: _334  and  _336
REMARK  137  A    between atoms: _336  and  _337
REMARK  138  A    between atoms: _336  and  _339
REMARK  139  A    between atoms: _339  and  _340
REMARK  140  A    between atoms: _346  and  _348
REMARK  141  A    between atoms: _348  and  _349
REMARK  142  A    between atoms: _348  and  _351
REMARK  143  A    between atoms: _351  and  _352
REMARK  144  A    between atoms: _355  and  _357
REMARK  145  A    between atoms: _357  and  _358
REMARK  146  A    between atoms: _357  and  _360
REMARK  147  A    between atoms: _360  and  _361
REMARK  148  A    between atoms: _367  and  _369
REMARK  149  A    between atoms: _369  and  _370
REMARK  150  A    between atoms: _369  and  _372
REMARK  151  A    between atoms: _372  and  _373
REMARK  152  A    between atoms: _376  and  _378
REMARK  153  A    between atoms: _378  and  _379
REMARK  154  A    between atoms: _378  and  _381
REMARK  155  A    between atoms: _381  and  _382
REMARK  156  A    between atoms: _385  and  _387
REMARK  157  A    between atoms: _387  and  _388
REMARK  158  A    between atoms: _387  and  _390
REMARK  159  A    between atoms: _390  and  _391
REMARK  160  A    between atoms: _391  and  _392
REMARK  161  A    between atoms: _395  and  _397
REMARK  162  A    between atoms: _397  and  _398
REMARK  163  A    between atoms: _397  and  _400
REMARK  164  A    between atoms: _400  and  _401
REMARK  165  A    between atoms: _406  and  _408
REMARK  166  A    between atoms: _408  and  _409
REMARK  167  A    between atoms: _408  and  _411
REMARK  168  A    between atoms: _411  and  _412
REMARK  169  A    between atoms: _415  and  _417
REMARK  170  A    between atoms: _417  and  _418
REMARK  171  A    between atoms: _417  and  _420
REMARK  172  A    between atoms: _420  and  _421
REMARK  173  A    between atoms: _424  and  _426
REMARK  174  A    between atoms: _426  and  _427
REMARK  175  A    between atoms: _426  and  _429
REMARK  176  A    between atoms: _429  and  _430
REMARK  177  A    between atoms: _433  and  _435
REMARK  178  A    between atoms: _435  and  _436
REMARK  179  A    between atoms: _435  and  _438
REMARK  180  A    between atoms: _438  and  _439
REMARK  181  A    between atoms: _442  and  _444
REMARK  182  A    between atoms: _444  and  _445
REMARK  183  A    between atoms: _444  and  _447
REMARK  184  A    between atoms: _447  and  _448
REMARK  185  A    between atoms: _451  and  _453
REMARK  186  A    between atoms: _453  and  _454
REMARK  187  A    between atoms: _453  and  _456
REMARK  188  A    between atoms: _456  and  _457
REMARK  189  A    between atoms: _457  and  _458
REMARK  190  A    between atoms: _458  and  _459
REMARK  191  A    between atoms: _459  and  _460
REMARK  192  A    between atoms: _464  and  _466
REMARK  193  A    between atoms: _466  and  _467
REMARK  194  A    between atoms: _466  and  _469
REMARK  195  A    between atoms: _469  and  _470
REMARK  196  A    between atoms: _473  and  _475
REMARK  197  A    between atoms: _475  and  _476
REMARK  198  A    between atoms: _475  and  _478
REMARK  199  A    between atoms: _478  and  _479
REMARK  200  A    between atoms: _482  and  _484
REMARK  201  A    between atoms: _484  and  _485
REMARK  202  A    between atoms: _484  and  _487
REMARK  203  A    between atoms: _487  and  _488
REMARK  204  A    between atoms: _491  and  _493
REMARK  205  A    between atoms: _493  and  _494
REMARK  206  A    between atoms: _493  and  _496
REMARK  207  A    between atoms: _496  and  _497
REMARK  208  A    between atoms: _503  and  _505
REMARK  209  A    between atoms: _505  and  _506
REMARK  210  A    between atoms: _508  and  _510
REMARK  211  A    between atoms: _510  and  _511
REMARK  212  A    between atoms: _510  and  _513
REMARK  213  A    between atoms: _513  and  _514
REMARK                            x       y       z     vdW  Elec       q    Type
REMARK                         _______ _______ _______ _____ _____    ______ ____
ROOT
ATOM      1  O   HOH     1     -20.770 -38.021  12.332  0.00  0.00    +0.000 OA
ENDROOT
TORSDOF 0
REMARK  Name = ../refined-set-2016/4k18/4k18_pocket.pdb
REMARK  213 active torsions:
REMARK  status: ('A' for Active; 'I' for Inactive)
REMARK    1  A    between atoms: _1  and  _3
REMARK    2  A    between atoms: _3  and  _4
REMARK    3  A    between atoms: _3  and  _6
REMARK    4  A    between atoms: _6  and  _7
REMARK    5  A    between atoms: _10  and  _12
REMARK    6  A    between atoms: _12  and  _13
REMARK    7  A    between atoms: _12  and  _15
REMARK    8  A    between atoms: _15  and  _16
REMARK    9  A    between atoms: _19  and  _21
REMARK   10  A    between atoms: _21  and  _22
REMARK   11  A    between atoms: _24  and  _26
REMARK   12  A    between atoms: _26  and  _27
REMARK   13  A    between atoms: _26  and  _29
REMARK   14  A    between atoms: _29  and  _30
REMARK   15  A    between atoms: _32  and  _34
REMARK   16  A    between atoms: _34  and  _35
REMARK   17  A    between atoms: _37  and  _39
REMARK   18  A    between atoms: _39  and  _40
REMARK   19  A    between atoms: _42  and  _44
REMARK   20  A    between atoms: _44  and  _45
REMARK   21  A    between atoms: _44  and  _47
REMARK   22  A    between atoms: _47  and  _48
REMARK   23  A    between atoms: _54  and  _56
REMARK   24  A    between atoms: _56  and  _57
REMARK   25  A    between atoms: _59  and  _61
REMARK   26  A    between atoms: _61  and  _62
REMARK   27  A    between atoms: _61  and  _64
REMARK   28  A    between atoms: _64  and  _65
REMARK   29  A    between atoms: _67  and  _69
REMARK   30  A    between atoms: _69  and  _70
REMARK   31  A    between atoms: _69  and  _72
REMARK   32  A    between atoms: _75  and  _77
REMARK   33  A    between atoms: _77  and  _78
REMARK   34  A    between atoms: _77  and  _80
REMARK   35  A    between atoms: _80  and  _81
REMARK   36  A    between atoms: _86  and  _87
REMARK   37  A    between atoms: _89  and  _91
REMARK   38  A    between atoms: _91  and  _92
REMARK   39  A    between atoms: _91  and  _94
REMARK   40  A    between atoms: _94  and  _95
REMARK   41  A    between atoms: _97  and  _99
REMARK   42  A    between atoms: _99  and  _100
REMARK   43  A    between atoms: _103  and  _104
REMARK   44  A    between atoms: _109  and  _111
REMARK   45  A    between atoms: _111  and  _112
REMARK   46  A    between atoms: _111  and  _114
REMARK   47  A    between atoms: _117  and  _119
REMARK   48  A    between atoms: _119  and  _120
REMARK   49  A    between atoms: _123  and  _125
REMARK   50  A    between atoms: _125  and  _126
REMARK   51  A    between atoms: _125  and  _128
REMARK   52  A    between atoms: _128  and  _129
REMARK   53  A    between atoms: _132  and  _134
REMARK   54  A    between atoms: _134  and  _135
REMARK   55  A    between atoms: _134  and  _137
REMARK   56  A    between atoms: _137  and  _138
REMARK   57  A    between atoms: _138  and  _139
REMARK   58  A    between atoms: _139  and  _140
REMARK   59  A    between atoms: _140  and  _141
REMARK   60  A    between atoms: _145  and  _147
REMARK   61  A    between atoms: _147  and  _148
REMARK   62  A    between atoms: _147  and  _150
REMARK   63  A    between atoms: _150  and  _151
REMARK   64  A    between atoms: _156  and  _158
REMARK   65  A    between atoms: _158  and  _159
REMARK   66  A    between atoms: _158  and  _161
REMARK   67  A    between atoms: _164  and  _166
REMARK   68  A    between atoms: _166  and  _167
REMARK   69  A    between atoms: _166  and  _169
REMARK   70  A    between atoms: _169  and  _170
REMARK   71  A    between atoms: _170  and  _171
REMARK   72  A    between atoms: _174  and  _176
REMARK   73  A    between atoms: _176  and  _177
REMARK   74  A    between atoms: _176  and  _179
REMARK   75  A    between atoms: _179  and  _180
REMARK   76  A    between atoms: _183  and  _185
REMARK   77  A    between atoms: _185  and  _186
REMARK   78  A    between atoms: _185  and  _188
REMARK   79  A    between atoms: _188  and  _189
REMARK   80  A    between atoms: _192  and  _194
REMARK   81  A    between atoms: _194  and  _195
REMARK   82  A    between atoms: _194  and  _197
REMARK   83  A    between atoms: _197  and  _198
REMARK   84  A    between atoms: _198  and  _199
REMARK   85  A    between atoms: _199  and  _200
REMARK   86  A    between atoms: _209  and  _211
REMARK   87  A    between atoms: _211  and  _212
REMARK   88  A    between atoms: _211  and  _214
REMARK   89  A    between atoms: _214  and  _215
REMARK   90  A    between atoms: _218  and  _220
REMARK   91  A    between atoms: _220  and  _221
REMARK   92  A    between atoms: _220  and  _223
REMARK   93  A    between atoms: _223  and  _224
REMARK   94  A    between atoms: _227  and  _229
REMARK   95  A    between atoms: _229  and  _230
REMARK   96  A    between atoms: _229  and  _232
REMARK   97  A    between atoms: _232  and  _233
REMARK   98  A    between atoms: _236  and  _238
REMARK   99  A    between atoms: _238  and  _239
REMARK  100  A    between atoms: _238  and  _241
REMARK  101  A    between atoms: _241  and  _242
REMARK  102  A    between atoms: _245  and  _247
REMARK  103  A    between atoms: _247  and  _248
REMARK  104  A    between atoms: _247  and  _250
REMARK  105  A    between atoms: _250  and  _251
REMARK  106  A    between atoms: _251  and  _252
REMARK  107  A    between atoms: _255  and  _257
REMARK  108  A    between atoms: _257  and  _258
REMARK  109  A    between atoms: _257  and  _260
REMARK  110  A    between atoms: _260  and  _261
REMARK  111  A    between atoms: _261  and  _262
REMARK  112  A    between atoms: _262  and  _263
REMARK  113  A    between atoms: _273  and  _274
REMARK  114  A    between atoms: _279  and  _281
REMARK  115  A    between atoms: _281  and  _282
REMARK  116  A    between atoms: _281  and  _284
REMARK  117  A    between atoms: _284  and  _285
REMARK  118  A    between atoms: _285  and  _286
REMARK  119  A    between atoms: _290  and  _291
REMARK  120  A    between atoms: _296  and  _298
REMARK  121  A    between atoms: _298  and  _299
REMARK  122  A    between atoms: _298  and  _301
REMARK  123  A    between atoms: _304  and  _306
REMARK  124  A    between atoms: _306  and  _307
REMARK  125  A    between atoms: _306  and  _309
REMARK  126  A    between atoms: _309  and  _310
REMARK  127  A    between atoms: _310  and  _311
REMARK  128  A    between atoms: _316  and  _318
REMARK  129  A    between atoms: _318  and  _319
REMARK  130  A    between atoms: _318  and  _321
REMARK  131  A    between atoms: _321  and  _322
REMARK  132  A    between atoms: _325  and  _327
REMARK  133  A    between atoms: _327  and  _328
REMARK  134  A    between atoms: _327  and  _330
REMARK  135  A    between atoms: _330  and  _331
REMARK  136  A    between atoms: _334  and  _336
REMARK  137  A    between atoms: _336  and  _337
REMARK  138  A    between atoms: _336  and  _339
REMARK  139  A    between atoms: _339  and  _340
REMARK  140  A    between atoms: _346  and  _348
REMARK  141  A    between atoms: _348  and  _349
REMARK  142  A    between atoms: _348  and  _351
REMARK  143  A    between atoms: _351  and  _352
REMARK  144  A    between atoms: _355  and  _357
REMARK  145  A    between atoms: _357  and  _358
REMARK  146  A    between atoms: _357  and  _360
REMARK  147  A    between atoms: _360  and  _361
REMARK  148  A    between atoms: _367  and  _369
REMARK  149  A    between atoms: _369  and  _370
REMARK  150  A    between atoms: _369  and  _372
REMARK  151  A    between atoms: _372  and  _373
REMARK  152  A    between atoms: _376  and  _378
REMARK  153  A    between atoms: _378  and  _379
REMARK  154  A    between atoms: _378  and  _381
REMARK  155  A    between atoms: _381  and  _382
REMARK  156  A    between atoms: _385  and  _387
REMARK  157  A    between atoms: _387  and  _388
REMARK  158  A    between atoms: _387  and  _390
REMARK  159  A    between atoms: _390  and  _391
REMARK  160  A    between atoms: _391  and  _392
REMARK  161  A    between atoms: _395  and  _397
REMARK  162  A    between atoms: _397  and  _398
REMARK  163  A    between atoms: _397  and  _400
REMARK  164  A    between atoms: _400  and  _401
REMARK  165  A    between atoms: _406  and  _408
REMARK  166  A    between atoms: _408  and  _409
REMARK  167  A    between atoms: _408  and  _411
REMARK  168  A    between atoms: _411  and  _412
REMARK  169  A    between atoms: _415  and  _417
REMARK  170  A    between atoms: _417  and  _418
REMARK  171  A    between atoms: _417  and  _420
REMARK  172  A    between atoms: _420  and  _421
REMARK  173  A    between atoms: _424  and  _426
REMARK  174  A    between atoms: _426  and  _427
REMARK  175  A    between atoms: _426  and  _429
REMARK  176  A    between atoms: _429  and  _430
REMARK  177  A    between atoms: _433  and  _435
REMARK  178  A    between atoms: _435  and  _436
REMARK  179  A    between atoms: _435  and  _438
REMARK  180  A    between atoms: _438  and  _439
REMARK  181  A    between atoms: _442  and  _444
REMARK  182  A    between atoms: _444  and  _445
REMARK  183  A    between atoms: _444  and  _447
REMARK  184  A    between atoms: _447  and  _448
REMARK  185  A    between atoms: _451  and  _453
REMARK  186  A    between atoms: _453  and  _454
REMARK  187  A    between atoms: _453  and  _456
REMARK  188  A    between atoms: _456  and  _457
REMARK  189  A    between atoms: _457  and  _458
REMARK  190  A    between atoms: _458  and  _459
REMARK  191  A    between atoms: _459  and  _460
REMARK  192  A    between atoms: _464  and  _466
REMARK  193  A    between atoms: _466  and  _467
REMARK  194  A    between atoms: _466  and  _469
REMARK  195  A    between atoms: _469  and  _470
REMARK  196  A    between atoms: _473  and  _475
REMARK  197  A    between atoms: _475  and  _476
REMARK  198  A    between atoms: _475  and  _478
REMARK  199  A    between atoms: _478  and  _479
REMARK  200  A    between atoms: _482  and  _484
REMARK  201  A    between atoms: _484  and  _485
REMARK  202  A    between atoms: _484  and  _487
REMARK  203  A    between atoms: _487  and  _488
REMARK  204  A    between atoms: _491  and  _493
REMARK  205  A    between atoms: _493  and  _494
REMARK  206  A    between atoms: _493  and  _496
REMARK  207  A    between atoms: _496  and  _497
REMARK  208  A    between atoms: _503  and  _505
REMARK  209  A    between atoms: _505  and  _506
REMARK  210  A    between atoms: _508  and  _510
REMARK  211  A    between atoms: _510  and  _511
REMARK  212  A    between atoms: _510  and  _513
REMARK  213  A    between atoms: _513  and  _514
REMARK                            x       y       z     vdW  Elec       q    Type
REMARK                         _______ _______ _______ _____ _____    ______ ____
ROOT
ATOM      1  O   HOH     1     -19.175 -35.326   9.703  0.00  0.00    +0.000 OA
ENDROOT
TORSDOF 0
