REMARK  Name = ../refined-set-2016/4agm/4agm_pocket.pdb
REMARK  94 active torsions:
REMARK  status: ('A' for Active; 'I' for Inactive)
REMARK    1  A    between atoms: _1  and  _3
REMARK    2  A    between atoms: _3  and  _4
REMARK    3  A    between atoms: _3  and  _6
REMARK    4  A    between atoms: _6  and  _7
REMARK    5  A    between atoms: _12  and  _13
REMARK    6  A    between atoms: _15  and  _17
REMARK    7  A    between atoms: _17  and  _18
REMARK    8  A    between atoms: _17  and  _20
REMARK    9  A    between atoms: _20  and  _21
REMARK   10  A    between atoms: _27  and  _29
REMARK   11  A    between atoms: _29  and  _30
REMARK   12  A    between atoms: _29  and  _32
REMARK   13  A    between atoms: _32  and  _33
REMARK   14  A    between atoms: _33  and  _34
REMARK   15  A    between atoms: _34  and  _35
REMARK   16  A    between atoms: _44  and  _46
REMARK   17  A    between atoms: _46  and  _47
REMARK   18  A    between atoms: _46  and  _49
REMARK   19  A    between atoms: _49  and  _50
REMARK   20  A    between atoms: _50  and  _51
REMARK   21  A    between atoms: _56  and  _58
REMARK   22  A    between atoms: _58  and  _59
REMARK   23  A    between atoms: _58  and  _61
REMARK   24  A    between atoms: _61  and  _62
REMARK   25  A    between atoms: _65  and  _67
REMARK   26  A    between atoms: _67  and  _68
REMARK   27  A    between atoms: _67  and  _70
REMARK   28  A    between atoms: _70  and  _71
REMARK   29  A    between atoms: _81  and  _83
REMARK   30  A    between atoms: _83  and  _84
REMARK   31  A    between atoms: _83  and  _86
REMARK   32  A    between atoms: _89  and  _91
REMARK   33  A    between atoms: _91  and  _92
REMARK   34  A    between atoms: _91  and  _94
REMARK   35  A    between atoms: _94  and  _95
REMARK   36  A    between atoms: _98  and  _100
REMARK   37  A    between atoms: _100  and  _101
REMARK   38  A    between atoms: _100  and  _103
REMARK   39  A    between atoms: _103  and  _104
REMARK   40  A    between atoms: _106  and  _108
REMARK   41  A    between atoms: _108  and  _109
REMARK   42  A    between atoms: _108  and  _111
REMARK   43  A    between atoms: _111  and  _112
REMARK   44  A    between atoms: _116  and  _117
REMARK   45  A    between atoms: _123  and  _124
REMARK   46  A    between atoms: _130  and  _131
REMARK   47  A    between atoms: _136  and  _138
REMARK   48  A    between atoms: _138  and  _139
REMARK   49  A    between atoms: _141  and  _143
REMARK   50  A    between atoms: _143  and  _144
REMARK   51  A    between atoms: _143  and  _146
REMARK   52  A    between atoms: _146  and  _147
REMARK   53  A    between atoms: _150  and  _152
REMARK   54  A    between atoms: _152  and  _153
REMARK   55  A    between atoms: _152  and  _155
REMARK   56  A    between atoms: _159  and  _160
REMARK   57  A    between atoms: _165  and  _167
REMARK   58  A    between atoms: _167  and  _168
REMARK   59  A    between atoms: _167  and  _170
REMARK   60  A    between atoms: _172  and  _174
REMARK   61  A    between atoms: _174  and  _175
REMARK   62  A    between atoms: _174  and  _177
REMARK   63  A    between atoms: _177  and  _178
REMARK   64  A    between atoms: _178  and  _179
REMARK   65  A    between atoms: _183  and  _184
REMARK   66  A    between atoms: _190  and  _191
REMARK   67  A    between atoms: _196  and  _198
REMARK   68  A    between atoms: _198  and  _199
REMARK   69  A    between atoms: _198  and  _201
REMARK   70  A    between atoms: _201  and  _202
REMARK   71  A    between atoms: _202  and  _203
REMARK   72  A    between atoms: _206  and  _208
REMARK   73  A    between atoms: _208  and  _209
REMARK   74  A    between atoms: _208  and  _211
REMARK   75  A    between atoms: _211  and  _212
REMARK   76  A    between atoms: _214  and  _216
REMARK   77  A    between atoms: _216  and  _217
REMARK   78  A    between atoms: _216  and  _219
REMARK   79  A    between atoms: _219  and  _220
REMARK   80  A    between atoms: _223  and  _225
REMARK   81  A    between atoms: _225  and  _226
REMARK   82  A    between atoms: _225  and  _228
REMARK   83  A    between atoms: _230  and  _232
REMARK   84  A    between atoms: _232  and  _233
REMARK   85  A    between atoms: _232  and  _235
REMARK   86  A    between atoms: _235  and  _236
REMARK   87  A    between atoms: _239  and  _241
REMARK   88  A    between atoms: _241  and  _242
REMARK   89  A    between atoms: _241  and  _244
REMARK   90  A    between atoms: _244  and  _245
REMARK   91  A    between atoms: _248  and  _250
REMARK   92  A    between atoms: _250  and  _251
REMARK   93  A    between atoms: _250  and  _253
REMARK   94  A    between atoms: _253  and  _254
REMARK                            x       y       z     vdW  Elec       q    Type
REMARK                         _______ _______ _______ _____ _____    ______ ____
ROOT
ATOM      1  CG  TYR A   1      99.527  94.934 -47.159  0.00  0.00    -0.020 A 
ATOM      2  CD2 TYR A   1     100.323  93.823 -47.402  0.00  0.00    -0.001 A 
ATOM      3  CE2 TYR A   1     100.496  93.347 -48.697  0.00  0.00    +0.036 A 
ATOM      4  CZ  TYR A   1      99.879  94.007 -49.743  0.00  0.00    +0.134 A 
ATOM      5  CE1 TYR A   1      99.099  95.119 -49.518  0.00  0.00    +0.036 A 
ATOM      6  CD1 TYR A   1      98.932  95.577 -48.234  0.00  0.00    -0.001 A 
ENDROOT
BRANCH   4   7
ATOM      7  OH  TYR A   1     100.030  93.558 -51.041  0.00  0.00    -0.506 OA
ATOM      8  HH  TYR A   1     100.989  93.574 -51.285  0.00  0.00    +0.292 HD
ENDBRANCH   4   7
BRANCH   1   9
ATOM      9  CB  TYR A   1      99.366  95.482 -45.771  0.00  0.00    +0.051 C 
BRANCH   9  10
ATOM     10  CA  TYR A   1     100.200  96.762 -45.606  0.00  0.00    +0.137 C 
BRANCH  10  11
ATOM     11  N   TYR A   1     101.606  96.489 -45.864  0.00  0.00    -0.239 NA
ATOM     12  H   TYR A   1     102.060  95.660 -45.430  0.00  0.00    +0.142 HD
ENDBRANCH  10  11
BRANCH  10  13
ATOM     13  C   TYR A   1      99.973  97.395 -44.247  0.00  0.00    +0.224 C 
ATOM     14  O   TYR A   1      98.838  97.686 -43.897  0.00  0.00    -0.287 OA
ENDBRANCH  10  13
ENDBRANCH   9  10
ENDBRANCH   1   9
TORSDOF 5
REMARK  Name = ../refined-set-2016/4agm/4agm_pocket.pdb
REMARK  94 active torsions:
REMARK  status: ('A' for Active; 'I' for Inactive)
REMARK    1  A    between atoms: _1  and  _3
REMARK    2  A    between atoms: _3  and  _4
REMARK    3  A    between atoms: _3  and  _6
REMARK    4  A    between atoms: _6  and  _7
REMARK    5  A    between atoms: _12  and  _13
REMARK    6  A    between atoms: _15  and  _17
REMARK    7  A    between atoms: _17  and  _18
REMARK    8  A    between atoms: _17  and  _20
REMARK    9  A    between atoms: _20  and  _21
REMARK   10  A    between atoms: _27  and  _29
REMARK   11  A    between atoms: _29  and  _30
REMARK   12  A    between atoms: _29  and  _32
REMARK   13  A    between atoms: _32  and  _33
REMARK   14  A    between atoms: _33  and  _34
REMARK   15  A    between atoms: _34  and  _35
REMARK   16  A    between atoms: _44  and  _46
REMARK   17  A    between atoms: _46  and  _47
REMARK   18  A    between atoms: _46  and  _49
REMARK   19  A    between atoms: _49  and  _50
REMARK   20  A    between atoms: _50  and  _51
REMARK   21  A    between atoms: _56  and  _58
REMARK   22  A    between atoms: _58  and  _59
REMARK   23  A    between atoms: _58  and  _61
REMARK   24  A    between atoms: _61  and  _62
REMARK   25  A    between atoms: _65  and  _67
REMARK   26  A    between atoms: _67  and  _68
REMARK   27  A    between atoms: _67  and  _70
REMARK   28  A    between atoms: _70  and  _71
REMARK   29  A    between atoms: _81  and  _83
REMARK   30  A    between atoms: _83  and  _84
REMARK   31  A    between atoms: _83  and  _86
REMARK   32  A    between atoms: _89  and  _91
REMARK   33  A    between atoms: _91  and  _92
REMARK   34  A    between atoms: _91  and  _94
REMARK   35  A    between atoms: _94  and  _95
REMARK   36  A    between atoms: _98  and  _100
REMARK   37  A    between atoms: _100  and  _101
REMARK   38  A    between atoms: _100  and  _103
REMARK   39  A    between atoms: _103  and  _104
REMARK   40  A    between atoms: _106  and  _108
REMARK   41  A    between atoms: _108  and  _109
REMARK   42  A    between atoms: _108  and  _111
REMARK   43  A    between atoms: _111  and  _112
REMARK   44  A    between atoms: _116  and  _117
REMARK   45  A    between atoms: _123  and  _124
REMARK   46  A    between atoms: _130  and  _131
REMARK   47  A    between atoms: _136  and  _138
REMARK   48  A    between atoms: _138  and  _139
REMARK   49  A    between atoms: _141  and  _143
REMARK   50  A    between atoms: _143  and  _144
REMARK   51  A    between atoms: _143  and  _146
REMARK   52  A    between atoms: _146  and  _147
REMARK   53  A    between atoms: _150  and  _152
REMARK   54  A    between atoms: _152  and  _153
REMARK   55  A    between atoms: _152  and  _155
REMARK   56  A    between atoms: _159  and  _160
REMARK   57  A    between atoms: _165  and  _167
REMARK   58  A    between atoms: _167  and  _168
REMARK   59  A    between atoms: _167  and  _170
REMARK   60  A    between atoms: _172  and  _174
REMARK   61  A    between atoms: _174  and  _175
REMARK   62  A    between atoms: _174  and  _177
REMARK   63  A    between atoms: _177  and  _178
REMARK   64  A    between atoms: _178  and  _179
REMARK   65  A    between atoms: _183  and  _184
REMARK   66  A    between atoms: _190  and  _191
REMARK   67  A    between atoms: _196  and  _198
REMARK   68  A    between atoms: _198  and  _199
REMARK   69  A    between atoms: _198  and  _201
REMARK   70  A    between atoms: _201  and  _202
REMARK   71  A    between atoms: _202  and  _203
REMARK   72  A    between atoms: _206  and  _208
REMARK   73  A    between atoms: _208  and  _209
REMARK   74  A    between atoms: _208  and  _211
REMARK   75  A    between atoms: _211  and  _212
REMARK   76  A    between atoms: _214  and  _216
REMARK   77  A    between atoms: _216  and  _217
REMARK   78  A    between atoms: _216  and  _219
REMARK   79  A    between atoms: _219  and  _220
REMARK   80  A    between atoms: _223  and  _225
REMARK   81  A    between atoms: _225  and  _226
REMARK   82  A    between atoms: _225  and  _228
REMARK   83  A    between atoms: _230  and  _232
REMARK   84  A    between atoms: _232  and  _233
REMARK   85  A    between atoms: _232  and  _235
REMARK   86  A    between atoms: _235  and  _236
REMARK   87  A    between atoms: _239  and  _241
REMARK   88  A    between atoms: _241  and  _242
REMARK   89  A    between atoms: _241  and  _244
REMARK   90  A    between atoms: _244  and  _245
REMARK   91  A    between atoms: _248  and  _250
REMARK   92  A    between atoms: _250  and  _251
REMARK   93  A    between atoms: _250  and  _253
REMARK   94  A    between atoms: _253  and  _254
REMARK                            x       y       z     vdW  Elec       q    Type
REMARK                         _______ _______ _______ _____ _____    ______ ____
ROOT
ATOM      1  CA  ARG A   2      99.556  95.135 -36.544  0.00  0.00    +0.137 C 
ENDROOT
BRANCH   1   3
ATOM      2  C   PHE A   1     100.292  95.214 -38.862  0.00  0.00    +0.239 C 
ATOM      3  N   ARG A   2      99.299  95.234 -37.978  0.00  0.00    -0.298 N 
ATOM      4  H   ARG A   2      98.319  95.322 -38.315  0.00  0.00    +0.150 HD
ATOM      5  O   PHE A   1     101.477  95.251 -38.541  0.00  0.00    -0.274 OA
BRANCH   2   6
ATOM      6  CA  PHE A   1      99.880  95.134 -40.332  0.00  0.00    +0.149 C 
BRANCH   6   7
ATOM      7  N   PHE A   1     100.557  96.117 -41.178  0.00  0.00    -0.238 NA
ATOM      8  H   PHE A   1     101.343  95.795 -41.778  0.00  0.00    +0.142 HD
ENDBRANCH   6   7
BRANCH   6   9
ATOM      9  CB  PHE A   1     100.165  93.722 -40.865  0.00  0.00    +0.053 C 
BRANCH   9  10
ATOM     10  CG  PHE A   1      99.627  92.616 -40.001  0.00  0.00    -0.020 A 
ATOM     11  CD2 PHE A   1     100.483  91.873 -39.198  0.00  0.00    -0.004 A 
ATOM     12  CE2 PHE A   1      99.994  90.841 -38.404  0.00  0.00    -0.000 A 
ATOM     13  CZ  PHE A   1      98.637  90.543 -38.416  0.00  0.00    -0.000 A 
ATOM     14  CE1 PHE A   1      97.775  91.274 -39.224  0.00  0.00    -0.000 A 
ATOM     15  CD1 PHE A   1      98.280  92.310 -40.012  0.00  0.00    -0.004 A 
ENDBRANCH   9  10
ENDBRANCH   6   9
ENDBRANCH   2   6
ENDBRANCH   1   3
BRANCH   1  16
ATOM     16  C   ARG A   2      98.302  94.692 -35.800  0.00  0.00    +0.227 C 
ATOM     17  O   ARG A   2      97.179  94.839 -36.315  0.00  0.00    -0.286 OA
ENDBRANCH   1  16
BRANCH   1  18
ATOM     18  CB  ARG A   2     100.059  96.473 -35.968  0.00  0.00    +0.031 C 
BRANCH  18  19
ATOM     19  CG  ARG A   2      99.003  97.571 -35.842  0.00  0.00    +0.045 C 
BRANCH  19  20
ATOM     20  CD  ARG A   2      98.778  98.291 -37.162  0.00  0.00    +0.174 C 
BRANCH  20  21
ATOM     21  NE  ARG A   2      97.846  99.404 -37.014  0.00  0.00    -0.265 N 
ATOM     22  HE  ARG A   2      97.483  99.613 -36.062  0.00  0.00    +0.259 HD
ATOM     23  CZ  ARG A   2      97.431 100.169 -38.024  0.00  0.00    +0.342 C 
ATOM     24  NH2 ARG A   2      96.569 101.151 -37.802  0.00  0.00    -0.292 N 
ATOM     25 HH21 ARG A   2      96.216 101.325 -36.839  0.00  0.00    +0.255 HD
ATOM     26 HH22 ARG A   2      96.246 101.747 -38.590  0.00  0.00    +0.255 HD
ATOM     27  NH1 ARG A   2      97.870  99.944 -39.260  0.00  0.00    -0.292 N 
ATOM     28 HH11 ARG A   2      98.539  99.169 -39.441  0.00  0.00    +0.255 HD
ATOM     29 HH12 ARG A   2      97.544 100.543 -40.045  0.00  0.00    +0.255 HD
ENDBRANCH  20  21
ENDBRANCH  19  20
ENDBRANCH  18  19
ENDBRANCH   1  18
TORSDOF 10
REMARK  Name = ../refined-set-2016/4agm/4agm_pocket.pdb
REMARK  94 active torsions:
REMARK  status: ('A' for Active; 'I' for Inactive)
REMARK    1  A    between atoms: _1  and  _3
REMARK    2  A    between atoms: _3  and  _4
REMARK    3  A    between atoms: _3  and  _6
REMARK    4  A    between atoms: _6  and  _7
REMARK    5  A    between atoms: _12  and  _13
REMARK    6  A    between atoms: _15  and  _17
REMARK    7  A    between atoms: _17  and  _18
REMARK    8  A    between atoms: _17  and  _20
REMARK    9  A    between atoms: _20  and  _21
REMARK   10  A    between atoms: _27  and  _29
REMARK   11  A    between atoms: _29  and  _30
REMARK   12  A    between atoms: _29  and  _32
REMARK   13  A    between atoms: _32  and  _33
REMARK   14  A    between atoms: _33  and  _34
REMARK   15  A    between atoms: _34  and  _35
REMARK   16  A    between atoms: _44  and  _46
REMARK   17  A    between atoms: _46  and  _47
REMARK   18  A    between atoms: _46  and  _49
REMARK   19  A    between atoms: _49  and  _50
REMARK   20  A    between atoms: _50  and  _51
REMARK   21  A    between atoms: _56  and  _58
REMARK   22  A    between atoms: _58  and  _59
REMARK   23  A    between atoms: _58  and  _61
REMARK   24  A    between atoms: _61  and  _62
REMARK   25  A    between atoms: _65  and  _67
REMARK   26  A    between atoms: _67  and  _68
REMARK   27  A    between atoms: _67  and  _70
REMARK   28  A    between atoms: _70  and  _71
REMARK   29  A    between atoms: _81  and  _83
REMARK   30  A    between atoms: _83  and  _84
REMARK   31  A    between atoms: _83  and  _86
REMARK   32  A    between atoms: _89  and  _91
REMARK   33  A    between atoms: _91  and  _92
REMARK   34  A    between atoms: _91  and  _94
REMARK   35  A    between atoms: _94  and  _95
REMARK   36  A    between atoms: _98  and  _100
REMARK   37  A    between atoms: _100  and  _101
REMARK   38  A    between atoms: _100  and  _103
REMARK   39  A    between atoms: _103  and  _104
REMARK   40  A    between atoms: _106  and  _108
REMARK   41  A    between atoms: _108  and  _109
REMARK   42  A    between atoms: _108  and  _111
REMARK   43  A    between atoms: _111  and  _112
REMARK   44  A    between atoms: _116  and  _117
REMARK   45  A    between atoms: _123  and  _124
REMARK   46  A    between atoms: _130  and  _131
REMARK   47  A    between atoms: _136  and  _138
REMARK   48  A    between atoms: _138  and  _139
REMARK   49  A    between atoms: _141  and  _143
REMARK   50  A    between atoms: _143  and  _144
REMARK   51  A    between atoms: _143  and  _146
REMARK   52  A    between atoms: _146  and  _147
REMARK   53  A    between atoms: _150  and  _152
REMARK   54  A    between atoms: _152  and  _153
REMARK   55  A    between atoms: _152  and  _155
REMARK   56  A    between atoms: _159  and  _160
REMARK   57  A    between atoms: _165  and  _167
REMARK   58  A    between atoms: _167  and  _168
REMARK   59  A    between atoms: _167  and  _170
REMARK   60  A    between atoms: _172  and  _174
REMARK   61  A    between atoms: _174  and  _175
REMARK   62  A    between atoms: _174  and  _177
REMARK   63  A    between atoms: _177  and  _178
REMARK   64  A    between atoms: _178  and  _179
REMARK   65  A    between atoms: _183  and  _184
REMARK   66  A    between atoms: _190  and  _191
REMARK   67  A    between atoms: _196  and  _198
REMARK   68  A    between atoms: _198  and  _199
REMARK   69  A    between atoms: _198  and  _201
REMARK   70  A    between atoms: _201  and  _202
REMARK   71  A    between atoms: _202  and  _203
REMARK   72  A    between atoms: _206  and  _208
REMARK   73  A    between atoms: _208  and  _209
REMARK   74  A    between atoms: _208  and  _211
REMARK   75  A    between atoms: _211  and  _212
REMARK   76  A    between atoms: _214  and  _216
REMARK   77  A    between atoms: _216  and  _217
REMARK   78  A    between atoms: _216  and  _219
REMARK   79  A    between atoms: _219  and  _220
REMARK   80  A    between atoms: _223  and  _225
REMARK   81  A    between atoms: _225  and  _226
REMARK   82  A    between atoms: _225  and  _228
REMARK   83  A    between atoms: _230  and  _232
REMARK   84  A    between atoms: _232  and  _233
REMARK   85  A    between atoms: _232  and  _235
REMARK   86  A    between atoms: _235  and  _236
REMARK   87  A    between atoms: _239  and  _241
REMARK   88  A    between atoms: _241  and  _242
REMARK   89  A    between atoms: _241  and  _244
REMARK   90  A    between atoms: _244  and  _245
REMARK   91  A    between atoms: _248  and  _250
REMARK   92  A    between atoms: _250  and  _251
REMARK   93  A    between atoms: _250  and  _253
REMARK   94  A    between atoms: _253  and  _254
REMARK                            x       y       z     vdW  Elec       q    Type
REMARK                         _______ _______ _______ _____ _____    ______ ____
ROOT
ATOM      1  C   ASP A   5      96.276 100.546 -44.857  0.00  0.00    +0.241 C 
ATOM      2  O   ASP A   5      95.746 101.527 -45.389  0.00  0.00    -0.273 OA
ATOM      3  N   SER A   6      96.409  99.379 -45.480  0.00  0.00    -0.295 N 
ATOM      4  H   SER A   6      96.903  98.597 -45.004  0.00  0.00    +0.150 HD
ENDROOT
BRANCH   3   5
ATOM      5  CA  SER A   6      95.873  99.181 -46.818  0.00  0.00    +0.178 C 
BRANCH   5   6
ATOM      6  C   SER A   6      95.432  97.736 -47.008  0.00  0.00    +0.243 C 
ATOM      7  O   SER A   6      95.905  96.830 -46.313  0.00  0.00    -0.273 OA
ATOM      8  N   THR A   7      94.498  97.531 -47.924  0.00  0.00    -0.295 N 
ATOM      9  H   THR A   7      94.185  98.322 -48.522  0.00  0.00    +0.150 HD
BRANCH   8  10
ATOM     10  CA  THR A   7      93.904  96.217 -48.107  0.00  0.00    +0.176 C 
BRANCH  10  11
ATOM     11  C   THR A   7      94.870  95.226 -48.744  0.00  0.00    +0.246 C 
ATOM     12  N   PRO A   8      95.126  94.103 -48.060  0.00  0.00    -0.272 N 
ATOM     13  CD  PRO A   8      94.656  93.710 -46.719  0.00  0.00    +0.094 C 
ATOM     14  CG  PRO A   8      95.628  92.644 -46.321  0.00  0.00    +0.024 C 
ATOM     15  CB  PRO A   8      96.342  92.145 -47.542  0.00  0.00    +0.031 C 
ATOM     16  CA  PRO A   8      95.979  93.092 -48.690  0.00  0.00    +0.152 C 
ATOM     17  O   THR A   7      95.354  95.448 -49.849  0.00  0.00    -0.273 OA
BRANCH  16  18
ATOM     18  C   PRO A   8      95.217  92.326 -49.772  0.00  0.00    +0.244 C 
ATOM     19  O   PRO A   8      93.985  92.353 -49.811  0.00  0.00    -0.273 OA
ATOM     20  N   PRO A   9      95.950  91.644 -50.656  0.00  0.00    -0.272 N 
ATOM     21  CD  PRO A   9      97.419  91.683 -50.751  0.00  0.00    +0.094 C 
ATOM     22  CG  PRO A   9      97.671  91.307 -52.195  0.00  0.00    +0.024 C 
ATOM     23  CB  PRO A   9      96.553  90.373 -52.532  0.00  0.00    +0.031 C 
ATOM     24  CA  PRO A   9      95.337  90.943 -51.794  0.00  0.00    +0.152 C 
BRANCH  24  25
ATOM     25  C   PRO A   9      94.394  89.807 -51.377  0.00  0.00    +0.244 C 
ATOM     26  O   PRO A   9      94.562  89.225 -50.310  0.00  0.00    -0.273 OA
ATOM     27  N   PRO A  10      93.410  89.469 -52.221  0.00  0.00    -0.272 N 
ATOM     28  CA  PRO A  10      92.599  88.281 -51.954  0.00  0.00    +0.152 C 
ATOM     29  CB  PRO A  10      91.740  88.151 -53.219  0.00  0.00    +0.031 C 
ATOM     30  CG  PRO A  10      91.681  89.551 -53.768  0.00  0.00    +0.024 C 
ATOM     31  CD  PRO A  10      93.026  90.146 -53.472  0.00  0.00    +0.094 C 
BRANCH  28  32
ATOM     32  C   PRO A  10      93.508  87.060 -51.810  0.00  0.00    +0.241 C 
ATOM     33  N   GLY A  11      93.218  86.178 -50.859  0.00  0.00    -0.295 N 
ATOM     34  H   GLY A  11      92.381  86.319 -50.259  0.00  0.00    +0.150 HD
ATOM     35  O   PRO A  10      94.470  86.929 -52.571  0.00  0.00    -0.273 OA
BRANCH  33  36
ATOM     36  CA  GLY A  11      94.070  85.015 -50.656  0.00  0.00    +0.176 C 
BRANCH  36  37
ATOM     37  C   GLY A  11      95.078  85.204 -49.533  0.00  0.00    +0.243 C 
ATOM     38  N   THR A  12      95.188  86.432 -49.029  0.00  0.00    -0.296 N 
ATOM     39  H   THR A  12      94.688  87.221 -49.486  0.00  0.00    +0.150 HD
ATOM     40  O   GLY A  11      95.747  84.259 -49.125  0.00  0.00    -0.273 OA
BRANCH  38  41
ATOM     41  CA  THR A  12      96.001  86.686 -47.844  0.00  0.00    +0.164 C 
BRANCH  41  42
ATOM     42  CB  THR A  12      96.021  88.192 -47.504  0.00  0.00    +0.136 C 
ATOM     43  CG2 THR A  12      96.860  88.462 -46.258  0.00  0.00    +0.034 C 
BRANCH  42  44
ATOM     44  OG1 THR A  12      96.553  88.939 -48.609  0.00  0.00    -0.382 OA
ATOM     45  HG1 THR A  12      95.987  88.793 -49.408  0.00  0.00    +0.210 HD
ENDBRANCH  42  44
ENDBRANCH  41  42
BRANCH  41  46
ATOM     46  C   THR A  12      95.430  85.900 -46.659  0.00  0.00    +0.229 C 
ATOM     47  O   THR A  12      94.210  85.773 -46.527  0.00  0.00    -0.286 OA
ENDBRANCH  41  46
ENDBRANCH  38  41
ENDBRANCH  36  37
ENDBRANCH  33  36
ENDBRANCH  28  32
ENDBRANCH  24  25
ENDBRANCH  16  18
ENDBRANCH  10  11
BRANCH  10  48
ATOM     48  CB  THR A   7      92.643  96.286 -48.977  0.00  0.00    +0.137 C 
ATOM     49  CG2 THR A   7      91.976  94.923 -49.040  0.00  0.00    +0.034 C 
BRANCH  48  50
ATOM     50  OG1 THR A   7      91.729  97.246 -48.428  0.00  0.00    -0.382 OA
ATOM     51  HG1 THR A   7      90.917  97.287 -48.993  0.00  0.00    +0.210 HD
ENDBRANCH  48  50
ENDBRANCH  10  48
ENDBRANCH   8  10
ENDBRANCH   5   6
BRANCH   5  52
ATOM     52  CB  SER A   6      96.879  99.606 -47.895  0.00  0.00    +0.166 C 
BRANCH  52  53
ATOM     53  OG  SER A   6      98.076  98.859 -47.812  0.00  0.00    -0.380 OA
ATOM     54  H   SER A   6      98.700  99.159 -48.519  0.00  0.00    +0.211 HD
ENDBRANCH  52  53
ENDBRANCH   5  52
ENDBRANCH   3   5
BRANCH   1  55
ATOM     55  CA  ASP A   5      96.844 100.655 -43.450  0.00  0.00    +0.160 C 
BRANCH  55  58
ATOM     56  C   VAL A   4      95.912  98.836 -42.145  0.00  0.00    +0.241 C 
ATOM     57  O   VAL A   4      94.860  99.453 -41.945  0.00  0.00    -0.273 OA
ATOM     58  N   ASP A   5      96.943  99.342 -42.811  0.00  0.00    -0.297 N 
ATOM     59  H   ASP A   5      97.828  98.801 -42.879  0.00  0.00    +0.150 HD
BRANCH  56  60
ATOM     60  CA  VAL A   4      96.094  97.426 -41.629  0.00  0.00    +0.149 C 
BRANCH  60  63
ATOM     61  C   TRP A   3      95.620  96.473 -39.435  0.00  0.00    +0.241 C 
ATOM     62  O   TRP A   3      96.721  95.948 -39.362  0.00  0.00    -0.273 OA
ATOM     63  N   VAL A   4      95.206  97.163 -40.497  0.00  0.00    -0.297 N 
ATOM     64  H   VAL A   4      94.230  97.522 -40.522  0.00  0.00    +0.150 HD
BRANCH  61  65
ATOM     65  CA  TRP A   3      94.662  96.381 -38.267  0.00  0.00    +0.153 C 
BRANCH  65  67
ATOM     66  C   LEU A   2      93.617  94.257 -37.615  0.00  0.00    +0.241 C 
ATOM     67  N   TRP A   3      94.698  95.040 -37.701  0.00  0.00    -0.297 N 
ATOM     68  H   TRP A   3      95.605  94.674 -37.348  0.00  0.00    +0.150 HD
ATOM     69  O   LEU A   2      92.490  94.588 -37.992  0.00  0.00    -0.273 OA
BRANCH  66  70
ATOM     70  CA  LEU A   2      93.830  92.898 -36.993  0.00  0.00    +0.149 C 
BRANCH  70  73
ATOM     71  C   GLN A   1      93.245  92.660 -34.617  0.00  0.00    +0.238 C 
ATOM     72  O   GLN A   1      94.420  92.600 -34.236  0.00  0.00    -0.274 OA
ATOM     73  N   LEU A   2      92.873  92.744 -35.891  0.00  0.00    -0.297 N 
ATOM     74  H   LEU A   2      91.859  92.699 -36.116  0.00  0.00    +0.150 HD
BRANCH  71  75
ATOM     75  CA  GLN A   1      92.109  92.652 -33.615  0.00  0.00    +0.145 C 
BRANCH  75  76
ATOM     76  N   GLN A   1      92.398  91.797 -32.459  0.00  0.00    -0.238 NA
ATOM     77  H   GLN A   1      92.856  92.218 -31.625  0.00  0.00    +0.142 HD
ENDBRANCH  75  76
BRANCH  75  78
ATOM     78  CB  GLN A   1      91.880  94.092 -33.155  0.00  0.00    +0.036 C 
BRANCH  78  79
ATOM     79  CG  GLN A   1      90.725  94.230 -32.207  0.00  0.00    +0.087 C 
BRANCH  79  80
ATOM     80  CD  GLN A   1      90.566  95.643 -31.723  0.00  0.00    +0.219 C 
ATOM     81  NE2 GLN A   1      89.372  95.964 -31.231  0.00  0.00    -0.329 N 
ATOM     82 HE21 GLN A   1      89.201  96.923 -30.866  0.00  0.00    +0.145 HD
ATOM     83 HE22 GLN A   1      88.610  95.256 -31.212  0.00  0.00    +0.145 HD
ATOM     84  OE1 GLN A   1      91.508  96.444 -31.771  0.00  0.00    -0.275 OA
ENDBRANCH  79  80
ENDBRANCH  78  79
ENDBRANCH  75  78
ENDBRANCH  71  75
ENDBRANCH  70  73
BRANCH  70  85
ATOM     85  CB  LEU A   2      93.579  91.848 -38.073  0.00  0.00    +0.029 C 
BRANCH  85  86
ATOM     86  CG  LEU A   2      93.478  90.404 -37.582  0.00  0.00    +0.002 C 
ATOM     87  CD2 LEU A   2      94.762  89.984 -36.872  0.00  0.00    +0.000 C 
ATOM     88  CD1 LEU A   2      93.192  89.473 -38.750  0.00  0.00    +0.000 C 
ENDBRANCH  85  86
ENDBRANCH  70  85
ENDBRANCH  66  70
ENDBRANCH  65  67
BRANCH  65  89
ATOM     89  CB  TRP A   3      95.105  97.405 -37.213  0.00  0.00    +0.057 C 
BRANCH  89  90
ATOM     90  CG  TRP A   3      94.124  97.598 -36.105  0.00  0.00    -0.002 A 
ATOM     91  CD1 TRP A   3      94.050  96.885 -34.942  0.00  0.00    +0.068 A 
ATOM     92  NE1 TRP A   3      93.012  97.350 -34.162  0.00  0.00    -0.352 N 
ATOM     93  HE1 TRP A   3      92.746  96.983 -33.226  0.00  0.00    +0.166 HD
ATOM     94  CE2 TRP A   3      92.389  98.375 -34.823  0.00  0.00    +0.056 A 
ATOM     95  CZ2 TRP A   3      91.293  99.155 -34.446  0.00  0.00    +0.017 A 
ATOM     96  CH2 TRP A   3      90.884 100.125 -35.321  0.00  0.00    +0.001 A 
ATOM     97  CZ3 TRP A   3      91.529 100.325 -36.554  0.00  0.00    +0.000 A 
ATOM     98  CE3 TRP A   3      92.622  99.553 -36.927  0.00  0.00    +0.001 A 
ATOM     99  CD2 TRP A   3      93.063  98.556 -36.056  0.00  0.00    +0.013 A 
ENDBRANCH  89  90
ENDBRANCH  65  89
ENDBRANCH  61  65
ENDBRANCH  60  63
BRANCH  60 100
ATOM    100  CB  VAL A   4      95.869  96.442 -42.816  0.00  0.00    +0.027 C 
ATOM    101  CG2 VAL A   4      96.127  94.991 -42.386  0.00  0.00    +0.002 C 
ATOM    102  CG1 VAL A   4      94.458  96.572 -43.365  0.00  0.00    +0.002 C 
ENDBRANCH  60 100
ENDBRANCH  56  60
ENDBRANCH  55  58
BRANCH  55 103
ATOM    103  CB  ASP A   5      98.211 101.325 -43.516  0.00  0.00    +0.143 C 
BRANCH 103 104
ATOM    104  CG  ASP A   5      98.725 101.736 -42.162  0.00  0.00    +0.367 C 
ATOM    105  OD2 ASP A   5      97.907 102.019 -41.261  0.00  0.00    -0.246 OA
ATOM    106  OD1 ASP A   5      99.962 101.782 -42.002  0.00  0.00    -0.246 OA
ENDBRANCH 103 104
ENDBRANCH  55 103
ENDBRANCH   1  55
TORSDOF 37
REMARK  Name = ../refined-set-2016/4agm/4agm_pocket.pdb
REMARK  94 active torsions:
REMARK  status: ('A' for Active; 'I' for Inactive)
REMARK    1  A    between atoms: _1  and  _3
REMARK    2  A    between atoms: _3  and  _4
REMARK    3  A    between atoms: _3  and  _6
REMARK    4  A    between atoms: _6  and  _7
REMARK    5  A    between atoms: _12  and  _13
REMARK    6  A    between atoms: _15  and  _17
REMARK    7  A    between atoms: _17  and  _18
REMARK    8  A    between atoms: _17  and  _20
REMARK    9  A    between atoms: _20  and  _21
REMARK   10  A    between atoms: _27  and  _29
REMARK   11  A    between atoms: _29  and  _30
REMARK   12  A    between atoms: _29  and  _32
REMARK   13  A    between atoms: _32  and  _33
REMARK   14  A    between atoms: _33  and  _34
REMARK   15  A    between atoms: _34  and  _35
REMARK   16  A    between atoms: _44  and  _46
REMARK   17  A    between atoms: _46  and  _47
REMARK   18  A    between atoms: _46  and  _49
REMARK   19  A    between atoms: _49  and  _50
REMARK   20  A    between atoms: _50  and  _51
REMARK   21  A    between atoms: _56  and  _58
REMARK   22  A    between atoms: _58  and  _59
REMARK   23  A    between atoms: _58  and  _61
REMARK   24  A    between atoms: _61  and  _62
REMARK   25  A    between atoms: _65  and  _67
REMARK   26  A    between atoms: _67  and  _68
REMARK   27  A    between atoms: _67  and  _70
REMARK   28  A    between atoms: _70  and  _71
REMARK   29  A    between atoms: _81  and  _83
REMARK   30  A    between atoms: _83  and  _84
REMARK   31  A    between atoms: _83  and  _86
REMARK   32  A    between atoms: _89  and  _91
REMARK   33  A    between atoms: _91  and  _92
REMARK   34  A    between atoms: _91  and  _94
REMARK   35  A    between atoms: _94  and  _95
REMARK   36  A    between atoms: _98  and  _100
REMARK   37  A    between atoms: _100  and  _101
REMARK   38  A    between atoms: _100  and  _103
REMARK   39  A    between atoms: _103  and  _104
REMARK   40  A    between atoms: _106  and  _108
REMARK   41  A    between atoms: _108  and  _109
REMARK   42  A    between atoms: _108  and  _111
REMARK   43  A    between atoms: _111  and  _112
REMARK   44  A    between atoms: _116  and  _117
REMARK   45  A    between atoms: _123  and  _124
REMARK   46  A    between atoms: _130  and  _131
REMARK   47  A    between atoms: _136  and  _138
REMARK   48  A    between atoms: _138  and  _139
REMARK   49  A    between atoms: _141  and  _143
REMARK   50  A    between atoms: _143  and  _144
REMARK   51  A    between atoms: _143  and  _146
REMARK   52  A    between atoms: _146  and  _147
REMARK   53  A    between atoms: _150  and  _152
REMARK   54  A    between atoms: _152  and  _153
REMARK   55  A    between atoms: _152  and  _155
REMARK   56  A    between atoms: _159  and  _160
REMARK   57  A    between atoms: _165  and  _167
REMARK   58  A    between atoms: _167  and  _168
REMARK   59  A    between atoms: _167  and  _170
REMARK   60  A    between atoms: _172  and  _174
REMARK   61  A    between atoms: _174  and  _175
REMARK   62  A    between atoms: _174  and  _177
REMARK   63  A    between atoms: _177  and  _178
REMARK   64  A    between atoms: _178  and  _179
REMARK   65  A    between atoms: _183  and  _184
REMARK   66  A    between atoms: _190  and  _191
REMARK   67  A    between atoms: _196  and  _198
REMARK   68  A    between atoms: _198  and  _199
REMARK   69  A    between atoms: _198  and  _201
REMARK   70  A    between atoms: _201  and  _202
REMARK   71  A    between atoms: _202  and  _203
REMARK   72  A    between atoms: _206  and  _208
REMARK   73  A    between atoms: _208  and  _209
REMARK   74  A    between atoms: _208  and  _211
REMARK   75  A    between atoms: _211  and  _212
REMARK   76  A    between atoms: _214  and  _216
REMARK   77  A    between atoms: _216  and  _217
REMARK   78  A    between atoms: _216  and  _219
REMARK   79  A    between atoms: _219  and  _220
REMARK   80  A    between atoms: _223  and  _225
REMARK   81  A    between atoms: _225  and  _226
REMARK   82  A    between atoms: _225  and  _228
REMARK   83  A    between atoms: _230  and  _232
REMARK   84  A    between atoms: _232  and  _233
REMARK   85  A    between atoms: _232  and  _235
REMARK   86  A    between atoms: _235  and  _236
REMARK   87  A    between atoms: _239  and  _241
REMARK   88  A    between atoms: _241  and  _242
REMARK   89  A    between atoms: _241  and  _244
REMARK   90  A    between atoms: _244  and  _245
REMARK   91  A    between atoms: _248  and  _250
REMARK   92  A    between atoms: _250  and  _251
REMARK   93  A    between atoms: _250  and  _253
REMARK   94  A    between atoms: _253  and  _254
REMARK                            x       y       z     vdW  Elec       q    Type
REMARK                         _______ _______ _______ _____ _____    ______ ____
ROOT
ATOM      1  CA  VAL A   1      96.492  85.051 -40.914  0.00  0.00    +0.133 C 
ENDROOT
BRANCH   1   2
ATOM      2  CB  VAL A   1      95.432  85.894 -40.189  0.00  0.00    +0.023 C 
ATOM      3  CG2 VAL A   1      95.971  86.376 -38.838  0.00  0.00    +0.002 C 
ATOM      4  CG1 VAL A   1      95.017  87.081 -41.056  0.00  0.00    +0.002 C 
ENDBRANCH   1   2
BRANCH   1   5
ATOM      5  N   VAL A   1      96.016  84.619 -42.228  0.00  0.00    -0.239 NA
ATOM      6  H   VAL A   1      95.246  83.922 -42.277  0.00  0.00    +0.142 HD
ENDBRANCH   1   5
BRANCH   1   7
ATOM      7  C   VAL A   1      96.745  83.794 -40.103  0.00  0.00    +0.224 C 
ATOM      8  O   VAL A   1      95.820  83.021 -39.845  0.00  0.00    -0.287 OA
ENDBRANCH   1   7
TORSDOF 3
REMARK  Name = ../refined-set-2016/4agm/4agm_pocket.pdb
REMARK  94 active torsions:
REMARK  status: ('A' for Active; 'I' for Inactive)
REMARK    1  A    between atoms: _1  and  _3
REMARK    2  A    between atoms: _3  and  _4
REMARK    3  A    between atoms: _3  and  _6
REMARK    4  A    between atoms: _6  and  _7
REMARK    5  A    between atoms: _12  and  _13
REMARK    6  A    between atoms: _15  and  _17
REMARK    7  A    between atoms: _17  and  _18
REMARK    8  A    between atoms: _17  and  _20
REMARK    9  A    between atoms: _20  and  _21
REMARK   10  A    between atoms: _27  and  _29
REMARK   11  A    between atoms: _29  and  _30
REMARK   12  A    between atoms: _29  and  _32
REMARK   13  A    between atoms: _32  and  _33
REMARK   14  A    between atoms: _33  and  _34
REMARK   15  A    between atoms: _34  and  _35
REMARK   16  A    between atoms: _44  and  _46
REMARK   17  A    between atoms: _46  and  _47
REMARK   18  A    between atoms: _46  and  _49
REMARK   19  A    between atoms: _49  and  _50
REMARK   20  A    between atoms: _50  and  _51
REMARK   21  A    between atoms: _56  and  _58
REMARK   22  A    between atoms: _58  and  _59
REMARK   23  A    between atoms: _58  and  _61
REMARK   24  A    between atoms: _61  and  _62
REMARK   25  A    between atoms: _65  and  _67
REMARK   26  A    between atoms: _67  and  _68
REMARK   27  A    between atoms: _67  and  _70
REMARK   28  A    between atoms: _70  and  _71
REMARK   29  A    between atoms: _81  and  _83
REMARK   30  A    between atoms: _83  and  _84
REMARK   31  A    between atoms: _83  and  _86
REMARK   32  A    between atoms: _89  and  _91
REMARK   33  A    between atoms: _91  and  _92
REMARK   34  A    between atoms: _91  and  _94
REMARK   35  A    between atoms: _94  and  _95
REMARK   36  A    between atoms: _98  and  _100
REMARK   37  A    between atoms: _100  and  _101
REMARK   38  A    between atoms: _100  and  _103
REMARK   39  A    between atoms: _103  and  _104
REMARK   40  A    between atoms: _106  and  _108
REMARK   41  A    between atoms: _108  and  _109
REMARK   42  A    between atoms: _108  and  _111
REMARK   43  A    between atoms: _111  and  _112
REMARK   44  A    between atoms: _116  and  _117
REMARK   45  A    between atoms: _123  and  _124
REMARK   46  A    between atoms: _130  and  _131
REMARK   47  A    between atoms: _136  and  _138
REMARK   48  A    between atoms: _138  and  _139
REMARK   49  A    between atoms: _141  and  _143
REMARK   50  A    between atoms: _143  and  _144
REMARK   51  A    between atoms: _143  and  _146
REMARK   52  A    between atoms: _146  and  _147
REMARK   53  A    between atoms: _150  and  _152
REMARK   54  A    between atoms: _152  and  _153
REMARK   55  A    between atoms: _152  and  _155
REMARK   56  A    between atoms: _159  and  _160
REMARK   57  A    between atoms: _165  and  _167
REMARK   58  A    between atoms: _167  and  _168
REMARK   59  A    between atoms: _167  and  _170
REMARK   60  A    between atoms: _172  and  _174
REMARK   61  A    between atoms: _174  and  _175
REMARK   62  A    between atoms: _174  and  _177
REMARK   63  A    between atoms: _177  and  _178
REMARK   64  A    between atoms: _178  and  _179
REMARK   65  A    between atoms: _183  and  _184
REMARK   66  A    between atoms: _190  and  _191
REMARK   67  A    between atoms: _196  and  _198
REMARK   68  A    between atoms: _198  and  _199
REMARK   69  A    between atoms: _198  and  _201
REMARK   70  A    between atoms: _201  and  _202
REMARK   71  A    between atoms: _202  and  _203
REMARK   72  A    between atoms: _206  and  _208
REMARK   73  A    between atoms: _208  and  _209
REMARK   74  A    between atoms: _208  and  _211
REMARK   75  A    between atoms: _211  and  _212
REMARK   76  A    between atoms: _214  and  _216
REMARK   77  A    between atoms: _216  and  _217
REMARK   78  A    between atoms: _216  and  _219
REMARK   79  A    between atoms: _219  and  _220
REMARK   80  A    between atoms: _223  and  _225
REMARK   81  A    between atoms: _225  and  _226
REMARK   82  A    between atoms: _225  and  _228
REMARK   83  A    between atoms: _230  and  _232
REMARK   84  A    between atoms: _232  and  _233
REMARK   85  A    between atoms: _232  and  _235
REMARK   86  A    between atoms: _235  and  _236
REMARK   87  A    between atoms: _239  and  _241
REMARK   88  A    between atoms: _241  and  _242
REMARK   89  A    between atoms: _241  and  _244
REMARK   90  A    between atoms: _244  and  _245
REMARK   91  A    between atoms: _248  and  _250
REMARK   92  A    between atoms: _250  and  _251
REMARK   93  A    between atoms: _250  and  _253
REMARK   94  A    between atoms: _253  and  _254
REMARK                            x       y       z     vdW  Elec       q    Type
REMARK                         _______ _______ _______ _____ _____    ______ ____
ROOT
ATOM      1  C   GLU A   3      88.659  90.639 -43.786  0.00  0.00    +0.244 C 
ATOM      2  O   GLU A   3      89.241  91.081 -42.805  0.00  0.00    -0.273 OA
ATOM      3  N   PRO A   4      87.898  91.407 -44.584  0.00  0.00    -0.272 N 
ATOM      4  CA  PRO A   4      87.658  92.822 -44.288  0.00  0.00    +0.152 C 
ATOM      5  CB  PRO A   4      86.939  93.336 -45.543  0.00  0.00    +0.031 C 
ATOM      6  CG  PRO A   4      87.119  92.272 -46.580  0.00  0.00    +0.024 C 
ATOM      7  CD  PRO A   4      87.268  90.985 -45.846  0.00  0.00    +0.094 C 
ENDROOT
BRANCH   4   8
ATOM      8  C   PRO A   4      86.753  92.975 -43.069  0.00  0.00    +0.244 C 
ATOM      9  N   PRO A   5      86.794  94.146 -42.433  0.00  0.00    -0.272 N 
ATOM     10  CA  PRO A   5      85.938  94.386 -41.272  0.00  0.00    +0.152 C 
ATOM     11  CB  PRO A   5      86.297  95.820 -40.857  0.00  0.00    +0.031 C 
ATOM     12  CG  PRO A   5      87.683  96.051 -41.408  0.00  0.00    +0.024 C 
ATOM     13  CD  PRO A   5      87.742  95.249 -42.678  0.00  0.00    +0.094 C 
ATOM     14  O   PRO A   4      86.037  92.036 -42.704  0.00  0.00    -0.273 OA
BRANCH  10  15
ATOM     15  C   PRO A   5      84.470  94.300 -41.652  0.00  0.00    +0.241 C 
ATOM     16  N   GLU A   6      83.636  93.965 -40.676  0.00  0.00    -0.298 N 
ATOM     17  H   GLU A   6      84.021  93.639 -39.767  0.00  0.00    +0.150 HD
ATOM     18  O   PRO A   5      84.109  94.525 -42.811  0.00  0.00    -0.273 OA
BRANCH  16  19
ATOM     19  CA  GLU A   6      82.199  94.045 -40.852  0.00  0.00    +0.137 C 
BRANCH  19  20
ATOM     20  C   GLU A   6      81.844  95.478 -41.199  0.00  0.00    +0.227 C 
ATOM     21  O   GLU A   6      82.542  96.417 -40.802  0.00  0.00    -0.286 OA
ENDBRANCH  19  20
BRANCH  19  22
ATOM     22  CB  GLU A   6      81.481  93.634 -39.571  0.00  0.00    +0.039 C 
BRANCH  22  23
ATOM     23  CG  GLU A   6      81.740  92.187 -39.173  0.00  0.00    +0.116 C 
BRANCH  23  24
ATOM     24  CD  GLU A   6      81.374  91.233 -40.286  0.00  0.00    +0.365 C 
ATOM     25  OE2 GLU A   6      80.179  91.179 -40.646  0.00  0.00    -0.246 OA
ATOM     26  OE1 GLU A   6      82.282  90.541 -40.811  0.00  0.00    -0.246 OA
ENDBRANCH  23  24
ENDBRANCH  22  23
ENDBRANCH  19  22
ENDBRANCH  16  19
ENDBRANCH  10  15
ENDBRANCH   4   8
BRANCH   1  27
ATOM     27  CA  GLU A   3      88.797  89.173 -44.166  0.00  0.00    +0.149 C 
BRANCH  27  29
ATOM     28  C   CYS A   2      90.964  88.127 -44.516  0.00  0.00    +0.242 C 
ATOM     29  N   GLU A   3      90.056  88.620 -43.679  0.00  0.00    -0.297 N 
ATOM     30  H   GLU A   3      90.247  88.611 -42.657  0.00  0.00    +0.150 HD
ATOM     31  O   CYS A   2      90.807  88.122 -45.732  0.00  0.00    -0.273 OA
BRANCH  28  32
ATOM     32  CA  CYS A   2      92.222  87.520 -43.898  0.00  0.00    +0.160 C 
BRANCH  32  35
ATOM     33  C   PRO A   1      91.588  85.173 -43.857  0.00  0.00    +0.239 C 
ATOM     34  O   PRO A   1      90.845  85.340 -42.882  0.00  0.00    -0.274 OA
ATOM     35  N   CYS A   2      92.334  86.143 -44.377  0.00  0.00    -0.296 N 
ATOM     36  H   CYS A   2      93.008  85.919 -45.137  0.00  0.00    +0.150 HD
BRANCH  33  41
ATOM     37  N   PRO A   1      91.596  82.730 -43.533  0.00  0.00    -0.210 NA
ATOM     38  CD  PRO A   1      90.460  81.824 -43.769  0.00  0.00    +0.089 C 
ATOM     39  CG  PRO A   1      90.080  82.133 -45.203  0.00  0.00    +0.021 C 
ATOM     40  CB  PRO A   1      90.414  83.582 -45.378  0.00  0.00    +0.028 C 
ATOM     41  CA  PRO A   1      91.669  83.807 -44.526  0.00  0.00    +0.149 C 
ENDBRANCH  33  41
ENDBRANCH  32  35
BRANCH  32  42
ATOM     42  CB  CYS A   2      93.455  88.324 -44.313  0.00  0.00    +0.098 C 
ATOM     43  SG  CYS A   2      93.536  90.002 -43.614  0.00  0.00    -0.080 S 
ENDBRANCH  32  42
ENDBRANCH  28  32
ENDBRANCH  27  29
BRANCH  27  44
ATOM     44  CB  GLU A   3      87.621  88.389 -43.593  0.00  0.00    +0.041 C 
BRANCH  44  45
ATOM     45  CG  GLU A   3      87.548  86.951 -44.070  0.00  0.00    +0.116 C 
BRANCH  45  46
ATOM     46  CD  GLU A   3      86.577  86.112 -43.258  0.00  0.00    +0.365 C 
ATOM     47  OE2 GLU A   3      85.929  86.663 -42.344  0.00  0.00    -0.246 OA
ATOM     48  OE1 GLU A   3      86.465  84.897 -43.532  0.00  0.00    -0.246 OA
ENDBRANCH  45  46
ENDBRANCH  44  45
ENDBRANCH  27  44
ENDBRANCH   1  27
TORSDOF 16
REMARK  Name = ../refined-set-2016/4agm/4agm_pocket.pdb
REMARK  94 active torsions:
REMARK  status: ('A' for Active; 'I' for Inactive)
REMARK    1  A    between atoms: _1  and  _3
REMARK    2  A    between atoms: _3  and  _4
REMARK    3  A    between atoms: _3  and  _6
REMARK    4  A    between atoms: _6  and  _7
REMARK    5  A    between atoms: _12  and  _13
REMARK    6  A    between atoms: _15  and  _17
REMARK    7  A    between atoms: _17  and  _18
REMARK    8  A    between atoms: _17  and  _20
REMARK    9  A    between atoms: _20  and  _21
REMARK   10  A    between atoms: _27  and  _29
REMARK   11  A    between atoms: _29  and  _30
REMARK   12  A    between atoms: _29  and  _32
REMARK   13  A    between atoms: _32  and  _33
REMARK   14  A    between atoms: _33  and  _34
REMARK   15  A    between atoms: _34  and  _35
REMARK   16  A    between atoms: _44  and  _46
REMARK   17  A    between atoms: _46  and  _47
REMARK   18  A    between atoms: _46  and  _49
REMARK   19  A    between atoms: _49  and  _50
REMARK   20  A    between atoms: _50  and  _51
REMARK   21  A    between atoms: _56  and  _58
REMARK   22  A    between atoms: _58  and  _59
REMARK   23  A    between atoms: _58  and  _61
REMARK   24  A    between atoms: _61  and  _62
REMARK   25  A    between atoms: _65  and  _67
REMARK   26  A    between atoms: _67  and  _68
REMARK   27  A    between atoms: _67  and  _70
REMARK   28  A    between atoms: _70  and  _71
REMARK   29  A    between atoms: _81  and  _83
REMARK   30  A    between atoms: _83  and  _84
REMARK   31  A    between atoms: _83  and  _86
REMARK   32  A    between atoms: _89  and  _91
REMARK   33  A    between atoms: _91  and  _92
REMARK   34  A    between atoms: _91  and  _94
REMARK   35  A    between atoms: _94  and  _95
REMARK   36  A    between atoms: _98  and  _100
REMARK   37  A    between atoms: _100  and  _101
REMARK   38  A    between atoms: _100  and  _103
REMARK   39  A    between atoms: _103  and  _104
REMARK   40  A    between atoms: _106  and  _108
REMARK   41  A    between atoms: _108  and  _109
REMARK   42  A    between atoms: _108  and  _111
REMARK   43  A    between atoms: _111  and  _112
REMARK   44  A    between atoms: _116  and  _117
REMARK   45  A    between atoms: _123  and  _124
REMARK   46  A    between atoms: _130  and  _131
REMARK   47  A    between atoms: _136  and  _138
REMARK   48  A    between atoms: _138  and  _139
REMARK   49  A    between atoms: _141  and  _143
REMARK   50  A    between atoms: _143  and  _144
REMARK   51  A    between atoms: _143  and  _146
REMARK   52  A    between atoms: _146  and  _147
REMARK   53  A    between atoms: _150  and  _152
REMARK   54  A    between atoms: _152  and  _153
REMARK   55  A    between atoms: _152  and  _155
REMARK   56  A    between atoms: _159  and  _160
REMARK   57  A    between atoms: _165  and  _167
REMARK   58  A    between atoms: _167  and  _168
REMARK   59  A    between atoms: _167  and  _170
REMARK   60  A    between atoms: _172  and  _174
REMARK   61  A    between atoms: _174  and  _175
REMARK   62  A    between atoms: _174  and  _177
REMARK   63  A    between atoms: _177  and  _178
REMARK   64  A    between atoms: _178  and  _179
REMARK   65  A    between atoms: _183  and  _184
REMARK   66  A    between atoms: _190  and  _191
REMARK   67  A    between atoms: _196  and  _198
REMARK   68  A    between atoms: _198  and  _199
REMARK   69  A    between atoms: _198  and  _201
REMARK   70  A    between atoms: _201  and  _202
REMARK   71  A    between atoms: _202  and  _203
REMARK   72  A    between atoms: _206  and  _208
REMARK   73  A    between atoms: _208  and  _209
REMARK   74  A    between atoms: _208  and  _211
REMARK   75  A    between atoms: _211  and  _212
REMARK   76  A    between atoms: _214  and  _216
REMARK   77  A    between atoms: _216  and  _217
REMARK   78  A    between atoms: _216  and  _219
REMARK   79  A    between atoms: _219  and  _220
REMARK   80  A    between atoms: _223  and  _225
REMARK   81  A    between atoms: _225  and  _226
REMARK   82  A    between atoms: _225  and  _228
REMARK   83  A    between atoms: _230  and  _232
REMARK   84  A    between atoms: _232  and  _233
REMARK   85  A    between atoms: _232  and  _235
REMARK   86  A    between atoms: _235  and  _236
REMARK   87  A    between atoms: _239  and  _241
REMARK   88  A    between atoms: _241  and  _242
REMARK   89  A    between atoms: _241  and  _244
REMARK   90  A    between atoms: _244  and  _245
REMARK   91  A    between atoms: _248  and  _250
REMARK   92  A    between atoms: _250  and  _251
REMARK   93  A    between atoms: _250  and  _253
REMARK   94  A    between atoms: _253  and  _254
REMARK                            x       y       z     vdW  Elec       q    Type
REMARK                         _______ _______ _______ _____ _____    ______ ____
ROOT
ATOM      1  CA  CYS A   3      89.290  96.392 -37.952  0.00  0.00    +0.160 C 
ENDROOT
BRANCH   1   3
ATOM      2  C   ASP A   2      88.615  98.624 -38.658  0.00  0.00    +0.241 C 
ATOM      3  N   CYS A   3      88.330  97.489 -38.023  0.00  0.00    -0.296 N 
ATOM      4  H   CYS A   3      87.402  97.382 -37.567  0.00  0.00    +0.150 HD
ATOM      5  O   ASP A   2      89.704  98.842 -39.203  0.00  0.00    -0.273 OA
BRANCH   2   6
ATOM      6  CA  ASP A   2      87.519  99.681 -38.676  0.00  0.00    +0.160 C 
BRANCH   6   8
ATOM      7  C   SER A   1      85.207  98.958 -38.963  0.00  0.00    +0.241 C 
ATOM      8  N   ASP A   2      86.249  99.187 -38.168  0.00  0.00    -0.297 N 
ATOM      9  H   ASP A   2      86.152  99.007 -37.148  0.00  0.00    +0.150 HD
ATOM     10  O   SER A   1      85.263  99.033 -40.186  0.00  0.00    -0.274 OA
BRANCH   7  11
ATOM     11  CA  SER A   1      83.909  98.564 -38.255  0.00  0.00    +0.174 C 
BRANCH  11  12
ATOM     12  N   SER A   1      82.736  98.761 -39.102  0.00  0.00    -0.236 NA
ATOM     13  H   SER A   1      82.540  98.076 -39.860  0.00  0.00    +0.142 HD
ENDBRANCH  11  12
BRANCH  11  14
ATOM     14  CB  SER A   1      84.000  97.104 -37.800  0.00  0.00    +0.163 C 
BRANCH  14  15
ATOM     15  OG  SER A   1      82.967  96.798 -36.879  0.00  0.00    -0.380 OA
ATOM     16  H   SER A   1      82.088  96.944 -37.310  0.00  0.00    +0.211 HD
ENDBRANCH  14  15
ENDBRANCH  11  14
ENDBRANCH   7  11
ENDBRANCH   6   8
BRANCH   6  17
ATOM     17  CB  ASP A   2      87.969 100.892 -37.858  0.00  0.00    +0.143 C 
BRANCH  17  18
ATOM     18  CG  ASP A   2      87.097 102.106 -38.097  0.00  0.00    +0.367 C 
ATOM     19  OD2 ASP A   2      86.866 102.867 -37.137  0.00  0.00    -0.246 OA
ATOM     20  OD1 ASP A   2      86.651 102.291 -39.245  0.00  0.00    -0.246 OA
ENDBRANCH  17  18
ENDBRANCH   6  17
ENDBRANCH   2   6
ENDBRANCH   1   3
BRANCH   1  21
ATOM     21  C   CYS A   3      88.557  95.062 -37.968  0.00  0.00    +0.242 C 
ATOM     22  O   CYS A   3      87.340  95.021 -37.837  0.00  0.00    -0.273 OA
ATOM     23  N   THR A   4      89.313  93.982 -38.147  0.00  0.00    -0.295 N 
ATOM     24  H   THR A   4      90.332  94.107 -38.310  0.00  0.00    +0.150 HD
BRANCH  23  25
ATOM     25  CA  THR A   4      88.768  92.629 -38.123  0.00  0.00    +0.176 C 
BRANCH  25  26
ATOM     26  C   THR A   4      89.201  91.913 -36.858  0.00  0.00    +0.243 C 
ATOM     27  N   THR A   5      88.293  91.130 -36.288  0.00  0.00    -0.296 N 
ATOM     28  H   THR A   5      87.360  91.019 -36.733  0.00  0.00    +0.150 HD
ATOM     29  O   THR A   4      90.332  92.083 -36.393  0.00  0.00    -0.273 OA
BRANCH  27  30
ATOM     30  CA  THR A   5      88.585  90.428 -35.054  0.00  0.00    +0.164 C 
BRANCH  30  31
ATOM     31  C   THR A   5      88.617  88.917 -35.281  0.00  0.00    +0.229 C 
ATOM     32  O   THR A   5      87.724  88.352 -35.916  0.00  0.00    -0.286 OA
ENDBRANCH  30  31
BRANCH  30  33
ATOM     33  CB  THR A   5      87.565  90.781 -33.968  0.00  0.00    +0.136 C 
ATOM     34  CG2 THR A   5      87.849  89.992 -32.698  0.00  0.00    +0.034 C 
BRANCH  33  35
ATOM     35  OG1 THR A   5      87.659  92.181 -33.676  0.00  0.00    -0.382 OA
ATOM     36  HG1 THR A   5      87.468  92.702 -34.496  0.00  0.00    +0.210 HD
ENDBRANCH  33  35
ENDBRANCH  30  33
ENDBRANCH  27  30
ENDBRANCH  25  26
BRANCH  25  37
ATOM     37  CB  THR A   4      89.260  91.857 -39.354  0.00  0.00    +0.137 C 
ATOM     38  CG2 THR A   4      88.885  90.377 -39.287  0.00  0.00    +0.034 C 
BRANCH  37  39
ATOM     39  OG1 THR A   4      88.664  92.447 -40.515  0.00  0.00    -0.382 OA
ATOM     40  HG1 THR A   4      88.969  91.963 -41.323  0.00  0.00    +0.210 HD
ENDBRANCH  37  39
ENDBRANCH  25  37
ENDBRANCH  23  25
ENDBRANCH   1  21
BRANCH   1  41
ATOM     41  CB  CYS A   3      90.136  96.501 -36.677  0.00  0.00    +0.098 C 
ATOM     42  SG  CYS A   3      89.226  96.181 -35.133  0.00  0.00    -0.080 S 
ENDBRANCH   1  41
TORSDOF 19
REMARK  Name = ../refined-set-2016/4agm/4agm_pocket.pdb
REMARK  94 active torsions:
REMARK  status: ('A' for Active; 'I' for Inactive)
REMARK    1  A    between atoms: _1  and  _3
REMARK    2  A    between atoms: _3  and  _4
REMARK    3  A    between atoms: _3  and  _6
REMARK    4  A    between atoms: _6  and  _7
REMARK    5  A    between atoms: _12  and  _13
REMARK    6  A    between atoms: _15  and  _17
REMARK    7  A    between atoms: _17  and  _18
REMARK    8  A    between atoms: _17  and  _20
REMARK    9  A    between atoms: _20  and  _21
REMARK   10  A    between atoms: _27  and  _29
REMARK   11  A    between atoms: _29  and  _30
REMARK   12  A    between atoms: _29  and  _32
REMARK   13  A    between atoms: _32  and  _33
REMARK   14  A    between atoms: _33  and  _34
REMARK   15  A    between atoms: _34  and  _35
REMARK   16  A    between atoms: _44  and  _46
REMARK   17  A    between atoms: _46  and  _47
REMARK   18  A    between atoms: _46  and  _49
REMARK   19  A    between atoms: _49  and  _50
REMARK   20  A    between atoms: _50  and  _51
REMARK   21  A    between atoms: _56  and  _58
REMARK   22  A    between atoms: _58  and  _59
REMARK   23  A    between atoms: _58  and  _61
REMARK   24  A    between atoms: _61  and  _62
REMARK   25  A    between atoms: _65  and  _67
REMARK   26  A    between atoms: _67  and  _68
REMARK   27  A    between atoms: _67  and  _70
REMARK   28  A    between atoms: _70  and  _71
REMARK   29  A    between atoms: _81  and  _83
REMARK   30  A    between atoms: _83  and  _84
REMARK   31  A    between atoms: _83  and  _86
REMARK   32  A    between atoms: _89  and  _91
REMARK   33  A    between atoms: _91  and  _92
REMARK   34  A    between atoms: _91  and  _94
REMARK   35  A    between atoms: _94  and  _95
REMARK   36  A    between atoms: _98  and  _100
REMARK   37  A    between atoms: _100  and  _101
REMARK   38  A    between atoms: _100  and  _103
REMARK   39  A    between atoms: _103  and  _104
REMARK   40  A    between atoms: _106  and  _108
REMARK   41  A    between atoms: _108  and  _109
REMARK   42  A    between atoms: _108  and  _111
REMARK   43  A    between atoms: _111  and  _112
REMARK   44  A    between atoms: _116  and  _117
REMARK   45  A    between atoms: _123  and  _124
REMARK   46  A    between atoms: _130  and  _131
REMARK   47  A    between atoms: _136  and  _138
REMARK   48  A    between atoms: _138  and  _139
REMARK   49  A    between atoms: _141  and  _143
REMARK   50  A    between atoms: _143  and  _144
REMARK   51  A    between atoms: _143  and  _146
REMARK   52  A    between atoms: _146  and  _147
REMARK   53  A    between atoms: _150  and  _152
REMARK   54  A    between atoms: _152  and  _153
REMARK   55  A    between atoms: _152  and  _155
REMARK   56  A    between atoms: _159  and  _160
REMARK   57  A    between atoms: _165  and  _167
REMARK   58  A    between atoms: _167  and  _168
REMARK   59  A    between atoms: _167  and  _170
REMARK   60  A    between atoms: _172  and  _174
REMARK   61  A    between atoms: _174  and  _175
REMARK   62  A    between atoms: _174  and  _177
REMARK   63  A    between atoms: _177  and  _178
REMARK   64  A    between atoms: _178  and  _179
REMARK   65  A    between atoms: _183  and  _184
REMARK   66  A    between atoms: _190  and  _191
REMARK   67  A    between atoms: _196  and  _198
REMARK   68  A    between atoms: _198  and  _199
REMARK   69  A    between atoms: _198  and  _201
REMARK   70  A    between atoms: _201  and  _202
REMARK   71  A    between atoms: _202  and  _203
REMARK   72  A    between atoms: _206  and  _208
REMARK   73  A    between atoms: _208  and  _209
REMARK   74  A    between atoms: _208  and  _211
REMARK   75  A    between atoms: _211  and  _212
REMARK   76  A    between atoms: _214  and  _216
REMARK   77  A    between atoms: _216  and  _217
REMARK   78  A    between atoms: _216  and  _219
REMARK   79  A    between atoms: _219  and  _220
REMARK   80  A    between atoms: _223  and  _225
REMARK   81  A    between atoms: _225  and  _226
REMARK   82  A    between atoms: _225  and  _228
REMARK   83  A    between atoms: _230  and  _232
REMARK   84  A    between atoms: _232  and  _233
REMARK   85  A    between atoms: _232  and  _235
REMARK   86  A    between atoms: _235  and  _236
REMARK   87  A    between atoms: _239  and  _241
REMARK   88  A    between atoms: _241  and  _242
REMARK   89  A    between atoms: _241  and  _244
REMARK   90  A    between atoms: _244  and  _245
REMARK   91  A    between atoms: _248  and  _250
REMARK   92  A    between atoms: _250  and  _251
REMARK   93  A    between atoms: _250  and  _253
REMARK   94  A    between atoms: _253  and  _254
REMARK                            x       y       z     vdW  Elec       q    Type
REMARK                         _______ _______ _______ _____ _____    ______ ____
ROOT
ATOM      1  CA  LEU A   1     100.099  87.848 -42.225  0.00  0.00    +0.133 C 
ENDROOT
BRANCH   1   2
ATOM      2  N   LEU A   1     100.896  87.587 -41.042  0.00  0.00    -0.239 NA
ATOM      3  H   LEU A   1     101.634  88.271 -40.777  0.00  0.00    +0.142 HD
ENDBRANCH   1   2
BRANCH   1   4
ATOM      4  C   LEU A   1     100.881  87.223 -43.382  0.00  0.00    +0.224 C 
ATOM      5  O   LEU A   1     102.081  87.476 -43.515  0.00  0.00    -0.287 OA
ENDBRANCH   1   4
BRANCH   1   6
ATOM      6  CB  LEU A   1      99.960  89.361 -42.424  0.00  0.00    +0.025 C 
BRANCH   6   7
ATOM      7  CG  LEU A   1      98.931  89.799 -43.470  0.00  0.00    +0.002 C 
ATOM      8  CD2 LEU A   1      97.504  89.482 -42.991  0.00  0.00    +0.000 C 
ATOM      9  CD1 LEU A   1      99.069  91.281 -43.808  0.00  0.00    +0.000 C 
ENDBRANCH   6   7
ENDBRANCH   1   6
TORSDOF 4
REMARK  Name = ../refined-set-2016/4agm/4agm_pocket.pdb
REMARK  94 active torsions:
REMARK  status: ('A' for Active; 'I' for Inactive)
REMARK    1  A    between atoms: _1  and  _3
REMARK    2  A    between atoms: _3  and  _4
REMARK    3  A    between atoms: _3  and  _6
REMARK    4  A    between atoms: _6  and  _7
REMARK    5  A    between atoms: _12  and  _13
REMARK    6  A    between atoms: _15  and  _17
REMARK    7  A    between atoms: _17  and  _18
REMARK    8  A    between atoms: _17  and  _20
REMARK    9  A    between atoms: _20  and  _21
REMARK   10  A    between atoms: _27  and  _29
REMARK   11  A    between atoms: _29  and  _30
REMARK   12  A    between atoms: _29  and  _32
REMARK   13  A    between atoms: _32  and  _33
REMARK   14  A    between atoms: _33  and  _34
REMARK   15  A    between atoms: _34  and  _35
REMARK   16  A    between atoms: _44  and  _46
REMARK   17  A    between atoms: _46  and  _47
REMARK   18  A    between atoms: _46  and  _49
REMARK   19  A    between atoms: _49  and  _50
REMARK   20  A    between atoms: _50  and  _51
REMARK   21  A    between atoms: _56  and  _58
REMARK   22  A    between atoms: _58  and  _59
REMARK   23  A    between atoms: _58  and  _61
REMARK   24  A    between atoms: _61  and  _62
REMARK   25  A    between atoms: _65  and  _67
REMARK   26  A    between atoms: _67  and  _68
REMARK   27  A    between atoms: _67  and  _70
REMARK   28  A    between atoms: _70  and  _71
REMARK   29  A    between atoms: _81  and  _83
REMARK   30  A    between atoms: _83  and  _84
REMARK   31  A    between atoms: _83  and  _86
REMARK   32  A    between atoms: _89  and  _91
REMARK   33  A    between atoms: _91  and  _92
REMARK   34  A    between atoms: _91  and  _94
REMARK   35  A    between atoms: _94  and  _95
REMARK   36  A    between atoms: _98  and  _100
REMARK   37  A    between atoms: _100  and  _101
REMARK   38  A    between atoms: _100  and  _103
REMARK   39  A    between atoms: _103  and  _104
REMARK   40  A    between atoms: _106  and  _108
REMARK   41  A    between atoms: _108  and  _109
REMARK   42  A    between atoms: _108  and  _111
REMARK   43  A    between atoms: _111  and  _112
REMARK   44  A    between atoms: _116  and  _117
REMARK   45  A    between atoms: _123  and  _124
REMARK   46  A    between atoms: _130  and  _131
REMARK   47  A    between atoms: _136  and  _138
REMARK   48  A    between atoms: _138  and  _139
REMARK   49  A    between atoms: _141  and  _143
REMARK   50  A    between atoms: _143  and  _144
REMARK   51  A    between atoms: _143  and  _146
REMARK   52  A    between atoms: _146  and  _147
REMARK   53  A    between atoms: _150  and  _152
REMARK   54  A    between atoms: _152  and  _153
REMARK   55  A    between atoms: _152  and  _155
REMARK   56  A    between atoms: _159  and  _160
REMARK   57  A    between atoms: _165  and  _167
REMARK   58  A    between atoms: _167  and  _168
REMARK   59  A    between atoms: _167  and  _170
REMARK   60  A    between atoms: _172  and  _174
REMARK   61  A    between atoms: _174  and  _175
REMARK   62  A    between atoms: _174  and  _177
REMARK   63  A    between atoms: _177  and  _178
REMARK   64  A    between atoms: _178  and  _179
REMARK   65  A    between atoms: _183  and  _184
REMARK   66  A    between atoms: _190  and  _191
REMARK   67  A    between atoms: _196  and  _198
REMARK   68  A    between atoms: _198  and  _199
REMARK   69  A    between atoms: _198  and  _201
REMARK   70  A    between atoms: _201  and  _202
REMARK   71  A    between atoms: _202  and  _203
REMARK   72  A    between atoms: _206  and  _208
REMARK   73  A    between atoms: _208  and  _209
REMARK   74  A    between atoms: _208  and  _211
REMARK   75  A    between atoms: _211  and  _212
REMARK   76  A    between atoms: _214  and  _216
REMARK   77  A    between atoms: _216  and  _217
REMARK   78  A    between atoms: _216  and  _219
REMARK   79  A    between atoms: _219  and  _220
REMARK   80  A    between atoms: _223  and  _225
REMARK   81  A    between atoms: _225  and  _226
REMARK   82  A    between atoms: _225  and  _228
REMARK   83  A    between atoms: _230  and  _232
REMARK   84  A    between atoms: _232  and  _233
REMARK   85  A    between atoms: _232  and  _235
REMARK   86  A    between atoms: _235  and  _236
REMARK   87  A    between atoms: _239  and  _241
REMARK   88  A    between atoms: _241  and  _242
REMARK   89  A    between atoms: _241  and  _244
REMARK   90  A    between atoms: _244  and  _245
REMARK   91  A    between atoms: _248  and  _250
REMARK   92  A    between atoms: _250  and  _251
REMARK   93  A    between atoms: _250  and  _253
REMARK   94  A    between atoms: _253  and  _254
REMARK                            x       y       z     vdW  Elec       q    Type
REMARK                         _______ _______ _______ _____ _____    ______ ____
ROOT
ATOM      1  O   HOH     1     100.194 100.315 -46.230  0.00  0.00    +0.000 OA
ENDROOT
TORSDOF 0
REMARK  Name = ../refined-set-2016/4agm/4agm_pocket.pdb
REMARK  94 active torsions:
REMARK  status: ('A' for Active; 'I' for Inactive)
REMARK    1  A    between atoms: _1  and  _3
REMARK    2  A    between atoms: _3  and  _4
REMARK    3  A    between atoms: _3  and  _6
REMARK    4  A    between atoms: _6  and  _7
REMARK    5  A    between atoms: _12  and  _13
REMARK    6  A    between atoms: _15  and  _17
REMARK    7  A    between atoms: _17  and  _18
REMARK    8  A    between atoms: _17  and  _20
REMARK    9  A    between atoms: _20  and  _21
REMARK   10  A    between atoms: _27  and  _29
REMARK   11  A    between atoms: _29  and  _30
REMARK   12  A    between atoms: _29  and  _32
REMARK   13  A    between atoms: _32  and  _33
REMARK   14  A    between atoms: _33  and  _34
REMARK   15  A    between atoms: _34  and  _35
REMARK   16  A    between atoms: _44  and  _46
REMARK   17  A    between atoms: _46  and  _47
REMARK   18  A    between atoms: _46  and  _49
REMARK   19  A    between atoms: _49  and  _50
REMARK   20  A    between atoms: _50  and  _51
REMARK   21  A    between atoms: _56  and  _58
REMARK   22  A    between atoms: _58  and  _59
REMARK   23  A    between atoms: _58  and  _61
REMARK   24  A    between atoms: _61  and  _62
REMARK   25  A    between atoms: _65  and  _67
REMARK   26  A    between atoms: _67  and  _68
REMARK   27  A    between atoms: _67  and  _70
REMARK   28  A    between atoms: _70  and  _71
REMARK   29  A    between atoms: _81  and  _83
REMARK   30  A    between atoms: _83  and  _84
REMARK   31  A    between atoms: _83  and  _86
REMARK   32  A    between atoms: _89  and  _91
REMARK   33  A    between atoms: _91  and  _92
REMARK   34  A    between atoms: _91  and  _94
REMARK   35  A    between atoms: _94  and  _95
REMARK   36  A    between atoms: _98  and  _100
REMARK   37  A    between atoms: _100  and  _101
REMARK   38  A    between atoms: _100  and  _103
REMARK   39  A    between atoms: _103  and  _104
REMARK   40  A    between atoms: _106  and  _108
REMARK   41  A    between atoms: _108  and  _109
REMARK   42  A    between atoms: _108  and  _111
REMARK   43  A    between atoms: _111  and  _112
REMARK   44  A    between atoms: _116  and  _117
REMARK   45  A    between atoms: _123  and  _124
REMARK   46  A    between atoms: _130  and  _131
REMARK   47  A    between atoms: _136  and  _138
REMARK   48  A    between atoms: _138  and  _139
REMARK   49  A    between atoms: _141  and  _143
REMARK   50  A    between atoms: _143  and  _144
REMARK   51  A    between atoms: _143  and  _146
REMARK   52  A    between atoms: _146  and  _147
REMARK   53  A    between atoms: _150  and  _152
REMARK   54  A    between atoms: _152  and  _153
REMARK   55  A    between atoms: _152  and  _155
REMARK   56  A    between atoms: _159  and  _160
REMARK   57  A    between atoms: _165  and  _167
REMARK   58  A    between atoms: _167  and  _168
REMARK   59  A    between atoms: _167  and  _170
REMARK   60  A    between atoms: _172  and  _174
REMARK   61  A    between atoms: _174  and  _175
REMARK   62  A    between atoms: _174  and  _177
REMARK   63  A    between atoms: _177  and  _178
REMARK   64  A    between atoms: _178  and  _179
REMARK   65  A    between atoms: _183  and  _184
REMARK   66  A    between atoms: _190  and  _191
REMARK   67  A    between atoms: _196  and  _198
REMARK   68  A    between atoms: _198  and  _199
REMARK   69  A    between atoms: _198  and  _201
REMARK   70  A    between atoms: _201  and  _202
REMARK   71  A    between atoms: _202  and  _203
REMARK   72  A    between atoms: _206  and  _208
REMARK   73  A    between atoms: _208  and  _209
REMARK   74  A    between atoms: _208  and  _211
REMARK   75  A    between atoms: _211  and  _212
REMARK   76  A    between atoms: _214  and  _216
REMARK   77  A    between atoms: _216  and  _217
REMARK   78  A    between atoms: _216  and  _219
REMARK   79  A    between atoms: _219  and  _220
REMARK   80  A    between atoms: _223  and  _225
REMARK   81  A    between atoms: _225  and  _226
REMARK   82  A    between atoms: _225  and  _228
REMARK   83  A    between atoms: _230  and  _232
REMARK   84  A    between atoms: _232  and  _233
REMARK   85  A    between atoms: _232  and  _235
REMARK   86  A    between atoms: _235  and  _236
REMARK   87  A    between atoms: _239  and  _241
REMARK   88  A    between atoms: _241  and  _242
REMARK   89  A    between atoms: _241  and  _244
REMARK   90  A    between atoms: _244  and  _245
REMARK   91  A    between atoms: _248  and  _250
REMARK   92  A    between atoms: _250  and  _251
REMARK   93  A    between atoms: _250  and  _253
REMARK   94  A    between atoms: _253  and  _254
REMARK                            x       y       z     vdW  Elec       q    Type
REMARK                         _______ _______ _______ _____ _____    ______ ____
ROOT
ATOM      1  O   HOH     1      95.427 102.591 -40.139  0.00  0.00    +0.000 OA
ENDROOT
TORSDOF 0
REMARK  Name = ../refined-set-2016/4agm/4agm_pocket.pdb
REMARK  94 active torsions:
REMARK  status: ('A' for Active; 'I' for Inactive)
REMARK    1  A    between atoms: _1  and  _3
REMARK    2  A    between atoms: _3  and  _4
REMARK    3  A    between atoms: _3  and  _6
REMARK    4  A    between atoms: _6  and  _7
REMARK    5  A    between atoms: _12  and  _13
REMARK    6  A    between atoms: _15  and  _17
REMARK    7  A    between atoms: _17  and  _18
REMARK    8  A    between atoms: _17  and  _20
REMARK    9  A    between atoms: _20  and  _21
REMARK   10  A    between atoms: _27  and  _29
REMARK   11  A    between atoms: _29  and  _30
REMARK   12  A    between atoms: _29  and  _32
REMARK   13  A    between atoms: _32  and  _33
REMARK   14  A    between atoms: _33  and  _34
REMARK   15  A    between atoms: _34  and  _35
REMARK   16  A    between atoms: _44  and  _46
REMARK   17  A    between atoms: _46  and  _47
REMARK   18  A    between atoms: _46  and  _49
REMARK   19  A    between atoms: _49  and  _50
REMARK   20  A    between atoms: _50  and  _51
REMARK   21  A    between atoms: _56  and  _58
REMARK   22  A    between atoms: _58  and  _59
REMARK   23  A    between atoms: _58  and  _61
REMARK   24  A    between atoms: _61  and  _62
REMARK   25  A    between atoms: _65  and  _67
REMARK   26  A    between atoms: _67  and  _68
REMARK   27  A    between atoms: _67  and  _70
REMARK   28  A    between atoms: _70  and  _71
REMARK   29  A    between atoms: _81  and  _83
REMARK   30  A    between atoms: _83  and  _84
REMARK   31  A    between atoms: _83  and  _86
REMARK   32  A    between atoms: _89  and  _91
REMARK   33  A    between atoms: _91  and  _92
REMARK   34  A    between atoms: _91  and  _94
REMARK   35  A    between atoms: _94  and  _95
REMARK   36  A    between atoms: _98  and  _100
REMARK   37  A    between atoms: _100  and  _101
REMARK   38  A    between atoms: _100  and  _103
REMARK   39  A    between atoms: _103  and  _104
REMARK   40  A    between atoms: _106  and  _108
REMARK   41  A    between atoms: _108  and  _109
REMARK   42  A    between atoms: _108  and  _111
REMARK   43  A    between atoms: _111  and  _112
REMARK   44  A    between atoms: _116  and  _117
REMARK   45  A    between atoms: _123  and  _124
REMARK   46  A    between atoms: _130  and  _131
REMARK   47  A    between atoms: _136  and  _138
REMARK   48  A    between atoms: _138  and  _139
REMARK   49  A    between atoms: _141  and  _143
REMARK   50  A    between atoms: _143  and  _144
REMARK   51  A    between atoms: _143  and  _146
REMARK   52  A    between atoms: _146  and  _147
REMARK   53  A    between atoms: _150  and  _152
REMARK   54  A    between atoms: _152  and  _153
REMARK   55  A    between atoms: _152  and  _155
REMARK   56  A    between atoms: _159  and  _160
REMARK   57  A    between atoms: _165  and  _167
REMARK   58  A    between atoms: _167  and  _168
REMARK   59  A    between atoms: _167  and  _170
REMARK   60  A    between atoms: _172  and  _174
REMARK   61  A    between atoms: _174  and  _175
REMARK   62  A    between atoms: _174  and  _177
REMARK   63  A    between atoms: _177  and  _178
REMARK   64  A    between atoms: _178  and  _179
REMARK   65  A    between atoms: _183  and  _184
REMARK   66  A    between atoms: _190  and  _191
REMARK   67  A    between atoms: _196  and  _198
REMARK   68  A    between atoms: _198  and  _199
REMARK   69  A    between atoms: _198  and  _201
REMARK   70  A    between atoms: _201  and  _202
REMARK   71  A    between atoms: _202  and  _203
REMARK   72  A    between atoms: _206  and  _208
REMARK   73  A    between atoms: _208  and  _209
REMARK   74  A    between atoms: _208  and  _211
REMARK   75  A    between atoms: _211  and  _212
REMARK   76  A    between atoms: _214  and  _216
REMARK   77  A    between atoms: _216  and  _217
REMARK   78  A    between atoms: _216  and  _219
REMARK   79  A    between atoms: _219  and  _220
REMARK   80  A    between atoms: _223  and  _225
REMARK   81  A    between atoms: _225  and  _226
REMARK   82  A    between atoms: _225  and  _228
REMARK   83  A    between atoms: _230  and  _232
REMARK   84  A    between atoms: _232  and  _233
REMARK   85  A    between atoms: _232  and  _235
REMARK   86  A    between atoms: _235  and  _236
REMARK   87  A    between atoms: _239  and  _241
REMARK   88  A    between atoms: _241  and  _242
REMARK   89  A    between atoms: _241  and  _244
REMARK   90  A    between atoms: _244  and  _245
REMARK   91  A    between atoms: _248  and  _250
REMARK   92  A    between atoms: _250  and  _251
REMARK   93  A    between atoms: _250  and  _253
REMARK   94  A    between atoms: _253  and  _254
REMARK                            x       y       z     vdW  Elec       q    Type
REMARK                         _______ _______ _______ _____ _____    ______ ____
ROOT
ATOM      1  O   HOH     1      92.259  98.057 -40.270  0.00  0.00    +0.000 OA
ENDROOT
TORSDOF 0
REMARK  Name = ../refined-set-2016/4agm/4agm_pocket.pdb
REMARK  94 active torsions:
REMARK  status: ('A' for Active; 'I' for Inactive)
REMARK    1  A    between atoms: _1  and  _3
REMARK    2  A    between atoms: _3  and  _4
REMARK    3  A    between atoms: _3  and  _6
REMARK    4  A    between atoms: _6  and  _7
REMARK    5  A    between atoms: _12  and  _13
REMARK    6  A    between atoms: _15  and  _17
REMARK    7  A    between atoms: _17  and  _18
REMARK    8  A    between atoms: _17  and  _20
REMARK    9  A    between atoms: _20  and  _21
REMARK   10  A    between atoms: _27  and  _29
REMARK   11  A    between atoms: _29  and  _30
REMARK   12  A    between atoms: _29  and  _32
REMARK   13  A    between atoms: _32  and  _33
REMARK   14  A    between atoms: _33  and  _34
REMARK   15  A    between atoms: _34  and  _35
REMARK   16  A    between atoms: _44  and  _46
REMARK   17  A    between atoms: _46  and  _47
REMARK   18  A    between atoms: _46  and  _49
REMARK   19  A    between atoms: _49  and  _50
REMARK   20  A    between atoms: _50  and  _51
REMARK   21  A    between atoms: _56  and  _58
REMARK   22  A    between atoms: _58  and  _59
REMARK   23  A    between atoms: _58  and  _61
REMARK   24  A    between atoms: _61  and  _62
REMARK   25  A    between atoms: _65  and  _67
REMARK   26  A    between atoms: _67  and  _68
REMARK   27  A    between atoms: _67  and  _70
REMARK   28  A    between atoms: _70  and  _71
REMARK   29  A    between atoms: _81  and  _83
REMARK   30  A    between atoms: _83  and  _84
REMARK   31  A    between atoms: _83  and  _86
REMARK   32  A    between atoms: _89  and  _91
REMARK   33  A    between atoms: _91  and  _92
REMARK   34  A    between atoms: _91  and  _94
REMARK   35  A    between atoms: _94  and  _95
REMARK   36  A    between atoms: _98  and  _100
REMARK   37  A    between atoms: _100  and  _101
REMARK   38  A    between atoms: _100  and  _103
REMARK   39  A    between atoms: _103  and  _104
REMARK   40  A    between atoms: _106  and  _108
REMARK   41  A    between atoms: _108  and  _109
REMARK   42  A    between atoms: _108  and  _111
REMARK   43  A    between atoms: _111  and  _112
REMARK   44  A    between atoms: _116  and  _117
REMARK   45  A    between atoms: _123  and  _124
REMARK   46  A    between atoms: _130  and  _131
REMARK   47  A    between atoms: _136  and  _138
REMARK   48  A    between atoms: _138  and  _139
REMARK   49  A    between atoms: _141  and  _143
REMARK   50  A    between atoms: _143  and  _144
REMARK   51  A    between atoms: _143  and  _146
REMARK   52  A    between atoms: _146  and  _147
REMARK   53  A    between atoms: _150  and  _152
REMARK   54  A    between atoms: _152  and  _153
REMARK   55  A    between atoms: _152  and  _155
REMARK   56  A    between atoms: _159  and  _160
REMARK   57  A    between atoms: _165  and  _167
REMARK   58  A    between atoms: _167  and  _168
REMARK   59  A    between atoms: _167  and  _170
REMARK   60  A    between atoms: _172  and  _174
REMARK   61  A    between atoms: _174  and  _175
REMARK   62  A    between atoms: _174  and  _177
REMARK   63  A    between atoms: _177  and  _178
REMARK   64  A    between atoms: _178  and  _179
REMARK   65  A    between atoms: _183  and  _184
REMARK   66  A    between atoms: _190  and  _191
REMARK   67  A    between atoms: _196  and  _198
REMARK   68  A    between atoms: _198  and  _199
REMARK   69  A    between atoms: _198  and  _201
REMARK   70  A    between atoms: _201  and  _202
REMARK   71  A    between atoms: _202  and  _203
REMARK   72  A    between atoms: _206  and  _208
REMARK   73  A    between atoms: _208  and  _209
REMARK   74  A    between atoms: _208  and  _211
REMARK   75  A    between atoms: _211  and  _212
REMARK   76  A    between atoms: _214  and  _216
REMARK   77  A    between atoms: _216  and  _217
REMARK   78  A    between atoms: _216  and  _219
REMARK   79  A    between atoms: _219  and  _220
REMARK   80  A    between atoms: _223  and  _225
REMARK   81  A    between atoms: _225  and  _226
REMARK   82  A    between atoms: _225  and  _228
REMARK   83  A    between atoms: _230  and  _232
REMARK   84  A    between atoms: _232  and  _233
REMARK   85  A    between atoms: _232  and  _235
REMARK   86  A    between atoms: _235  and  _236
REMARK   87  A    between atoms: _239  and  _241
REMARK   88  A    between atoms: _241  and  _242
REMARK   89  A    between atoms: _241  and  _244
REMARK   90  A    between atoms: _244  and  _245
REMARK   91  A    between atoms: _248  and  _250
REMARK   92  A    between atoms: _250  and  _251
REMARK   93  A    between atoms: _250  and  _253
REMARK   94  A    between atoms: _253  and  _254
REMARK                            x       y       z     vdW  Elec       q    Type
REMARK                         _______ _______ _______ _____ _____    ______ ____
ROOT
ATOM      1  O   HOH     1      93.115 101.081 -40.509  0.00  0.00    +0.000 OA
ENDROOT
TORSDOF 0
REMARK  Name = ../refined-set-2016/4agm/4agm_pocket.pdb
REMARK  94 active torsions:
REMARK  status: ('A' for Active; 'I' for Inactive)
REMARK    1  A    between atoms: _1  and  _3
REMARK    2  A    between atoms: _3  and  _4
REMARK    3  A    between atoms: _3  and  _6
REMARK    4  A    between atoms: _6  and  _7
REMARK    5  A    between atoms: _12  and  _13
REMARK    6  A    between atoms: _15  and  _17
REMARK    7  A    between atoms: _17  and  _18
REMARK    8  A    between atoms: _17  and  _20
REMARK    9  A    between atoms: _20  and  _21
REMARK   10  A    between atoms: _27  and  _29
REMARK   11  A    between atoms: _29  and  _30
REMARK   12  A    between atoms: _29  and  _32
REMARK   13  A    between atoms: _32  and  _33
REMARK   14  A    between atoms: _33  and  _34
REMARK   15  A    between atoms: _34  and  _35
REMARK   16  A    between atoms: _44  and  _46
REMARK   17  A    between atoms: _46  and  _47
REMARK   18  A    between atoms: _46  and  _49
REMARK   19  A    between atoms: _49  and  _50
REMARK   20  A    between atoms: _50  and  _51
REMARK   21  A    between atoms: _56  and  _58
REMARK   22  A    between atoms: _58  and  _59
REMARK   23  A    between atoms: _58  and  _61
REMARK   24  A    between atoms: _61  and  _62
REMARK   25  A    between atoms: _65  and  _67
REMARK   26  A    between atoms: _67  and  _68
REMARK   27  A    between atoms: _67  and  _70
REMARK   28  A    between atoms: _70  and  _71
REMARK   29  A    between atoms: _81  and  _83
REMARK   30  A    between atoms: _83  and  _84
REMARK   31  A    between atoms: _83  and  _86
REMARK   32  A    between atoms: _89  and  _91
REMARK   33  A    between atoms: _91  and  _92
REMARK   34  A    between atoms: _91  and  _94
REMARK   35  A    between atoms: _94  and  _95
REMARK   36  A    between atoms: _98  and  _100
REMARK   37  A    between atoms: _100  and  _101
REMARK   38  A    between atoms: _100  and  _103
REMARK   39  A    between atoms: _103  and  _104
REMARK   40  A    between atoms: _106  and  _108
REMARK   41  A    between atoms: _108  and  _109
REMARK   42  A    between atoms: _108  and  _111
REMARK   43  A    between atoms: _111  and  _112
REMARK   44  A    between atoms: _116  and  _117
REMARK   45  A    between atoms: _123  and  _124
REMARK   46  A    between atoms: _130  and  _131
REMARK   47  A    between atoms: _136  and  _138
REMARK   48  A    between atoms: _138  and  _139
REMARK   49  A    between atoms: _141  and  _143
REMARK   50  A    between atoms: _143  and  _144
REMARK   51  A    between atoms: _143  and  _146
REMARK   52  A    between atoms: _146  and  _147
REMARK   53  A    between atoms: _150  and  _152
REMARK   54  A    between atoms: _152  and  _153
REMARK   55  A    between atoms: _152  and  _155
REMARK   56  A    between atoms: _159  and  _160
REMARK   57  A    between atoms: _165  and  _167
REMARK   58  A    between atoms: _167  and  _168
REMARK   59  A    between atoms: _167  and  _170
REMARK   60  A    between atoms: _172  and  _174
REMARK   61  A    between atoms: _174  and  _175
REMARK   62  A    between atoms: _174  and  _177
REMARK   63  A    between atoms: _177  and  _178
REMARK   64  A    between atoms: _178  and  _179
REMARK   65  A    between atoms: _183  and  _184
REMARK   66  A    between atoms: _190  and  _191
REMARK   67  A    between atoms: _196  and  _198
REMARK   68  A    between atoms: _198  and  _199
REMARK   69  A    between atoms: _198  and  _201
REMARK   70  A    between atoms: _201  and  _202
REMARK   71  A    between atoms: _202  and  _203
REMARK   72  A    between atoms: _206  and  _208
REMARK   73  A    between atoms: _208  and  _209
REMARK   74  A    between atoms: _208  and  _211
REMARK   75  A    between atoms: _211  and  _212
REMARK   76  A    between atoms: _214  and  _216
REMARK   77  A    between atoms: _216  and  _217
REMARK   78  A    between atoms: _216  and  _219
REMARK   79  A    between atoms: _219  and  _220
REMARK   80  A    between atoms: _223  and  _225
REMARK   81  A    between atoms: _225  and  _226
REMARK   82  A    between atoms: _225  and  _228
REMARK   83  A    between atoms: _230  and  _232
REMARK   84  A    between atoms: _232  and  _233
REMARK   85  A    between atoms: _232  and  _235
REMARK   86  A    between atoms: _235  and  _236
REMARK   87  A    between atoms: _239  and  _241
REMARK   88  A    between atoms: _241  and  _242
REMARK   89  A    between atoms: _241  and  _244
REMARK   90  A    between atoms: _244  and  _245
REMARK   91  A    between atoms: _248  and  _250
REMARK   92  A    between atoms: _250  and  _251
REMARK   93  A    between atoms: _250  and  _253
REMARK   94  A    between atoms: _253  and  _254
REMARK                            x       y       z     vdW  Elec       q    Type
REMARK                         _______ _______ _______ _____ _____    ______ ____
ROOT
ATOM      1  O   HOH     1      98.958 104.059 -39.412  0.00  0.00    +0.000 OA
ENDROOT
TORSDOF 0
REMARK  Name = ../refined-set-2016/4agm/4agm_pocket.pdb
REMARK  94 active torsions:
REMARK  status: ('A' for Active; 'I' for Inactive)
REMARK    1  A    between atoms: _1  and  _3
REMARK    2  A    between atoms: _3  and  _4
REMARK    3  A    between atoms: _3  and  _6
REMARK    4  A    between atoms: _6  and  _7
REMARK    5  A    between atoms: _12  and  _13
REMARK    6  A    between atoms: _15  and  _17
REMARK    7  A    between atoms: _17  and  _18
REMARK    8  A    between atoms: _17  and  _20
REMARK    9  A    between atoms: _20  and  _21
REMARK   10  A    between atoms: _27  and  _29
REMARK   11  A    between atoms: _29  and  _30
REMARK   12  A    between atoms: _29  and  _32
REMARK   13  A    between atoms: _32  and  _33
REMARK   14  A    between atoms: _33  and  _34
REMARK   15  A    between atoms: _34  and  _35
REMARK   16  A    between atoms: _44  and  _46
REMARK   17  A    between atoms: _46  and  _47
REMARK   18  A    between atoms: _46  and  _49
REMARK   19  A    between atoms: _49  and  _50
REMARK   20  A    between atoms: _50  and  _51
REMARK   21  A    between atoms: _56  and  _58
REMARK   22  A    between atoms: _58  and  _59
REMARK   23  A    between atoms: _58  and  _61
REMARK   24  A    between atoms: _61  and  _62
REMARK   25  A    between atoms: _65  and  _67
REMARK   26  A    between atoms: _67  and  _68
REMARK   27  A    between atoms: _67  and  _70
REMARK   28  A    between atoms: _70  and  _71
REMARK   29  A    between atoms: _81  and  _83
REMARK   30  A    between atoms: _83  and  _84
REMARK   31  A    between atoms: _83  and  _86
REMARK   32  A    between atoms: _89  and  _91
REMARK   33  A    between atoms: _91  and  _92
REMARK   34  A    between atoms: _91  and  _94
REMARK   35  A    between atoms: _94  and  _95
REMARK   36  A    between atoms: _98  and  _100
REMARK   37  A    between atoms: _100  and  _101
REMARK   38  A    between atoms: _100  and  _103
REMARK   39  A    between atoms: _103  and  _104
REMARK   40  A    between atoms: _106  and  _108
REMARK   41  A    between atoms: _108  and  _109
REMARK   42  A    between atoms: _108  and  _111
REMARK   43  A    between atoms: _111  and  _112
REMARK   44  A    between atoms: _116  and  _117
REMARK   45  A    between atoms: _123  and  _124
REMARK   46  A    between atoms: _130  and  _131
REMARK   47  A    between atoms: _136  and  _138
REMARK   48  A    between atoms: _138  and  _139
REMARK   49  A    between atoms: _141  and  _143
REMARK   50  A    between atoms: _143  and  _144
REMARK   51  A    between atoms: _143  and  _146
REMARK   52  A    between atoms: _146  and  _147
REMARK   53  A    between atoms: _150  and  _152
REMARK   54  A    between atoms: _152  and  _153
REMARK   55  A    between atoms: _152  and  _155
REMARK   56  A    between atoms: _159  and  _160
REMARK   57  A    between atoms: _165  and  _167
REMARK   58  A    between atoms: _167  and  _168
REMARK   59  A    between atoms: _167  and  _170
REMARK   60  A    between atoms: _172  and  _174
REMARK   61  A    between atoms: _174  and  _175
REMARK   62  A    between atoms: _174  and  _177
REMARK   63  A    between atoms: _177  and  _178
REMARK   64  A    between atoms: _178  and  _179
REMARK   65  A    between atoms: _183  and  _184
REMARK   66  A    between atoms: _190  and  _191
REMARK   67  A    between atoms: _196  and  _198
REMARK   68  A    between atoms: _198  and  _199
REMARK   69  A    between atoms: _198  and  _201
REMARK   70  A    between atoms: _201  and  _202
REMARK   71  A    between atoms: _202  and  _203
REMARK   72  A    between atoms: _206  and  _208
REMARK   73  A    between atoms: _208  and  _209
REMARK   74  A    between atoms: _208  and  _211
REMARK   75  A    between atoms: _211  and  _212
REMARK   76  A    between atoms: _214  and  _216
REMARK   77  A    between atoms: _216  and  _217
REMARK   78  A    between atoms: _216  and  _219
REMARK   79  A    between atoms: _219  and  _220
REMARK   80  A    between atoms: _223  and  _225
REMARK   81  A    between atoms: _225  and  _226
REMARK   82  A    between atoms: _225  and  _228
REMARK   83  A    between atoms: _230  and  _232
REMARK   84  A    between atoms: _232  and  _233
REMARK   85  A    between atoms: _232  and  _235
REMARK   86  A    between atoms: _235  and  _236
REMARK   87  A    between atoms: _239  and  _241
REMARK   88  A    between atoms: _241  and  _242
REMARK   89  A    between atoms: _241  and  _244
REMARK   90  A    between atoms: _244  and  _245
REMARK   91  A    between atoms: _248  and  _250
REMARK   92  A    between atoms: _250  and  _251
REMARK   93  A    between atoms: _250  and  _253
REMARK   94  A    between atoms: _253  and  _254
REMARK                            x       y       z     vdW  Elec       q    Type
REMARK                         _______ _______ _______ _____ _____    ______ ____
ROOT
ATOM      1  O   HOH     1      96.075  97.724 -51.013  0.00  0.00    +0.000 OA
ENDROOT
TORSDOF 0
REMARK  Name = ../refined-set-2016/4agm/4agm_pocket.pdb
REMARK  94 active torsions:
REMARK  status: ('A' for Active; 'I' for Inactive)
REMARK    1  A    between atoms: _1  and  _3
REMARK    2  A    between atoms: _3  and  _4
REMARK    3  A    between atoms: _3  and  _6
REMARK    4  A    between atoms: _6  and  _7
REMARK    5  A    between atoms: _12  and  _13
REMARK    6  A    between atoms: _15  and  _17
REMARK    7  A    between atoms: _17  and  _18
REMARK    8  A    between atoms: _17  and  _20
REMARK    9  A    between atoms: _20  and  _21
REMARK   10  A    between atoms: _27  and  _29
REMARK   11  A    between atoms: _29  and  _30
REMARK   12  A    between atoms: _29  and  _32
REMARK   13  A    between atoms: _32  and  _33
REMARK   14  A    between atoms: _33  and  _34
REMARK   15  A    between atoms: _34  and  _35
REMARK   16  A    between atoms: _44  and  _46
REMARK   17  A    between atoms: _46  and  _47
REMARK   18  A    between atoms: _46  and  _49
REMARK   19  A    between atoms: _49  and  _50
REMARK   20  A    between atoms: _50  and  _51
REMARK   21  A    between atoms: _56  and  _58
REMARK   22  A    between atoms: _58  and  _59
REMARK   23  A    between atoms: _58  and  _61
REMARK   24  A    between atoms: _61  and  _62
REMARK   25  A    between atoms: _65  and  _67
REMARK   26  A    between atoms: _67  and  _68
REMARK   27  A    between atoms: _67  and  _70
REMARK   28  A    between atoms: _70  and  _71
REMARK   29  A    between atoms: _81  and  _83
REMARK   30  A    between atoms: _83  and  _84
REMARK   31  A    between atoms: _83  and  _86
REMARK   32  A    between atoms: _89  and  _91
REMARK   33  A    between atoms: _91  and  _92
REMARK   34  A    between atoms: _91  and  _94
REMARK   35  A    between atoms: _94  and  _95
REMARK   36  A    between atoms: _98  and  _100
REMARK   37  A    between atoms: _100  and  _101
REMARK   38  A    between atoms: _100  and  _103
REMARK   39  A    between atoms: _103  and  _104
REMARK   40  A    between atoms: _106  and  _108
REMARK   41  A    between atoms: _108  and  _109
REMARK   42  A    between atoms: _108  and  _111
REMARK   43  A    between atoms: _111  and  _112
REMARK   44  A    between atoms: _116  and  _117
REMARK   45  A    between atoms: _123  and  _124
REMARK   46  A    between atoms: _130  and  _131
REMARK   47  A    between atoms: _136  and  _138
REMARK   48  A    between atoms: _138  and  _139
REMARK   49  A    between atoms: _141  and  _143
REMARK   50  A    between atoms: _143  and  _144
REMARK   51  A    between atoms: _143  and  _146
REMARK   52  A    between atoms: _146  and  _147
REMARK   53  A    between atoms: _150  and  _152
REMARK   54  A    between atoms: _152  and  _153
REMARK   55  A    between atoms: _152  and  _155
REMARK   56  A    between atoms: _159  and  _160
REMARK   57  A    between atoms: _165  and  _167
REMARK   58  A    between atoms: _167  and  _168
REMARK   59  A    between atoms: _167  and  _170
REMARK   60  A    between atoms: _172  and  _174
REMARK   61  A    between atoms: _174  and  _175
REMARK   62  A    between atoms: _174  and  _177
REMARK   63  A    between atoms: _177  and  _178
REMARK   64  A    between atoms: _178  and  _179
REMARK   65  A    between atoms: _183  and  _184
REMARK   66  A    between atoms: _190  and  _191
REMARK   67  A    between atoms: _196  and  _198
REMARK   68  A    between atoms: _198  and  _199
REMARK   69  A    between atoms: _198  and  _201
REMARK   70  A    between atoms: _201  and  _202
REMARK   71  A    between atoms: _202  and  _203
REMARK   72  A    between atoms: _206  and  _208
REMARK   73  A    between atoms: _208  and  _209
REMARK   74  A    between atoms: _208  and  _211
REMARK   75  A    between atoms: _211  and  _212
REMARK   76  A    between atoms: _214  and  _216
REMARK   77  A    between atoms: _216  and  _217
REMARK   78  A    between atoms: _216  and  _219
REMARK   79  A    between atoms: _219  and  _220
REMARK   80  A    between atoms: _223  and  _225
REMARK   81  A    between atoms: _225  and  _226
REMARK   82  A    between atoms: _225  and  _228
REMARK   83  A    between atoms: _230  and  _232
REMARK   84  A    between atoms: _232  and  _233
REMARK   85  A    between atoms: _232  and  _235
REMARK   86  A    between atoms: _235  and  _236
REMARK   87  A    between atoms: _239  and  _241
REMARK   88  A    between atoms: _241  and  _242
REMARK   89  A    between atoms: _241  and  _244
REMARK   90  A    between atoms: _244  and  _245
REMARK   91  A    between atoms: _248  and  _250
REMARK   92  A    between atoms: _250  and  _251
REMARK   93  A    between atoms: _250  and  _253
REMARK   94  A    between atoms: _253  and  _254
REMARK                            x       y       z     vdW  Elec       q    Type
REMARK                         _______ _______ _______ _____ _____    ______ ____
ROOT
ATOM      1  O   HOH     1      93.104 100.211 -48.832  0.00  0.00    +0.000 OA
ENDROOT
TORSDOF 0
REMARK  Name = ../refined-set-2016/4agm/4agm_pocket.pdb
REMARK  94 active torsions:
REMARK  status: ('A' for Active; 'I' for Inactive)
REMARK    1  A    between atoms: _1  and  _3
REMARK    2  A    between atoms: _3  and  _4
REMARK    3  A    between atoms: _3  and  _6
REMARK    4  A    between atoms: _6  and  _7
REMARK    5  A    between atoms: _12  and  _13
REMARK    6  A    between atoms: _15  and  _17
REMARK    7  A    between atoms: _17  and  _18
REMARK    8  A    between atoms: _17  and  _20
REMARK    9  A    between atoms: _20  and  _21
REMARK   10  A    between atoms: _27  and  _29
REMARK   11  A    between atoms: _29  and  _30
REMARK   12  A    between atoms: _29  and  _32
REMARK   13  A    between atoms: _32  and  _33
REMARK   14  A    between atoms: _33  and  _34
REMARK   15  A    between atoms: _34  and  _35
REMARK   16  A    between atoms: _44  and  _46
REMARK   17  A    between atoms: _46  and  _47
REMARK   18  A    between atoms: _46  and  _49
REMARK   19  A    between atoms: _49  and  _50
REMARK   20  A    between atoms: _50  and  _51
REMARK   21  A    between atoms: _56  and  _58
REMARK   22  A    between atoms: _58  and  _59
REMARK   23  A    between atoms: _58  and  _61
REMARK   24  A    between atoms: _61  and  _62
REMARK   25  A    between atoms: _65  and  _67
REMARK   26  A    between atoms: _67  and  _68
REMARK   27  A    between atoms: _67  and  _70
REMARK   28  A    between atoms: _70  and  _71
REMARK   29  A    between atoms: _81  and  _83
REMARK   30  A    between atoms: _83  and  _84
REMARK   31  A    between atoms: _83  and  _86
REMARK   32  A    between atoms: _89  and  _91
REMARK   33  A    between atoms: _91  and  _92
REMARK   34  A    between atoms: _91  and  _94
REMARK   35  A    between atoms: _94  and  _95
REMARK   36  A    between atoms: _98  and  _100
REMARK   37  A    between atoms: _100  and  _101
REMARK   38  A    between atoms: _100  and  _103
REMARK   39  A    between atoms: _103  and  _104
REMARK   40  A    between atoms: _106  and  _108
REMARK   41  A    between atoms: _108  and  _109
REMARK   42  A    between atoms: _108  and  _111
REMARK   43  A    between atoms: _111  and  _112
REMARK   44  A    between atoms: _116  and  _117
REMARK   45  A    between atoms: _123  and  _124
REMARK   46  A    between atoms: _130  and  _131
REMARK   47  A    between atoms: _136  and  _138
REMARK   48  A    between atoms: _138  and  _139
REMARK   49  A    between atoms: _141  and  _143
REMARK   50  A    between atoms: _143  and  _144
REMARK   51  A    between atoms: _143  and  _146
REMARK   52  A    between atoms: _146  and  _147
REMARK   53  A    between atoms: _150  and  _152
REMARK   54  A    between atoms: _152  and  _153
REMARK   55  A    between atoms: _152  and  _155
REMARK   56  A    between atoms: _159  and  _160
REMARK   57  A    between atoms: _165  and  _167
REMARK   58  A    between atoms: _167  and  _168
REMARK   59  A    between atoms: _167  and  _170
REMARK   60  A    between atoms: _172  and  _174
REMARK   61  A    between atoms: _174  and  _175
REMARK   62  A    between atoms: _174  and  _177
REMARK   63  A    between atoms: _177  and  _178
REMARK   64  A    between atoms: _178  and  _179
REMARK   65  A    between atoms: _183  and  _184
REMARK   66  A    between atoms: _190  and  _191
REMARK   67  A    between atoms: _196  and  _198
REMARK   68  A    between atoms: _198  and  _199
REMARK   69  A    between atoms: _198  and  _201
REMARK   70  A    between atoms: _201  and  _202
REMARK   71  A    between atoms: _202  and  _203
REMARK   72  A    between atoms: _206  and  _208
REMARK   73  A    between atoms: _208  and  _209
REMARK   74  A    between atoms: _208  and  _211
REMARK   75  A    between atoms: _211  and  _212
REMARK   76  A    between atoms: _214  and  _216
REMARK   77  A    between atoms: _216  and  _217
REMARK   78  A    between atoms: _216  and  _219
REMARK   79  A    between atoms: _219  and  _220
REMARK   80  A    between atoms: _223  and  _225
REMARK   81  A    between atoms: _225  and  _226
REMARK   82  A    between atoms: _225  and  _228
REMARK   83  A    between atoms: _230  and  _232
REMARK   84  A    between atoms: _232  and  _233
REMARK   85  A    between atoms: _232  and  _235
REMARK   86  A    between atoms: _235  and  _236
REMARK   87  A    between atoms: _239  and  _241
REMARK   88  A    between atoms: _241  and  _242
REMARK   89  A    between atoms: _241  and  _244
REMARK   90  A    between atoms: _244  and  _245
REMARK   91  A    between atoms: _248  and  _250
REMARK   92  A    between atoms: _250  and  _251
REMARK   93  A    between atoms: _250  and  _253
REMARK   94  A    between atoms: _253  and  _254
REMARK                            x       y       z     vdW  Elec       q    Type
REMARK                         _______ _______ _______ _____ _____    ______ ____
ROOT
ATOM      1  O   HOH     1      89.157  97.214 -49.115  0.00  0.00    +0.000 OA
ENDROOT
TORSDOF 0
REMARK  Name = ../refined-set-2016/4agm/4agm_pocket.pdb
REMARK  94 active torsions:
REMARK  status: ('A' for Active; 'I' for Inactive)
REMARK    1  A    between atoms: _1  and  _3
REMARK    2  A    between atoms: _3  and  _4
REMARK    3  A    between atoms: _3  and  _6
REMARK    4  A    between atoms: _6  and  _7
REMARK    5  A    between atoms: _12  and  _13
REMARK    6  A    between atoms: _15  and  _17
REMARK    7  A    between atoms: _17  and  _18
REMARK    8  A    between atoms: _17  and  _20
REMARK    9  A    between atoms: _20  and  _21
REMARK   10  A    between atoms: _27  and  _29
REMARK   11  A    between atoms: _29  and  _30
REMARK   12  A    between atoms: _29  and  _32
REMARK   13  A    between atoms: _32  and  _33
REMARK   14  A    between atoms: _33  and  _34
REMARK   15  A    between atoms: _34  and  _35
REMARK   16  A    between atoms: _44  and  _46
REMARK   17  A    between atoms: _46  and  _47
REMARK   18  A    between atoms: _46  and  _49
REMARK   19  A    between atoms: _49  and  _50
REMARK   20  A    between atoms: _50  and  _51
REMARK   21  A    between atoms: _56  and  _58
REMARK   22  A    between atoms: _58  and  _59
REMARK   23  A    between atoms: _58  and  _61
REMARK   24  A    between atoms: _61  and  _62
REMARK   25  A    between atoms: _65  and  _67
REMARK   26  A    between atoms: _67  and  _68
REMARK   27  A    between atoms: _67  and  _70
REMARK   28  A    between atoms: _70  and  _71
REMARK   29  A    between atoms: _81  and  _83
REMARK   30  A    between atoms: _83  and  _84
REMARK   31  A    between atoms: _83  and  _86
REMARK   32  A    between atoms: _89  and  _91
REMARK   33  A    between atoms: _91  and  _92
REMARK   34  A    between atoms: _91  and  _94
REMARK   35  A    between atoms: _94  and  _95
REMARK   36  A    between atoms: _98  and  _100
REMARK   37  A    between atoms: _100  and  _101
REMARK   38  A    between atoms: _100  and  _103
REMARK   39  A    between atoms: _103  and  _104
REMARK   40  A    between atoms: _106  and  _108
REMARK   41  A    between atoms: _108  and  _109
REMARK   42  A    between atoms: _108  and  _111
REMARK   43  A    between atoms: _111  and  _112
REMARK   44  A    between atoms: _116  and  _117
REMARK   45  A    between atoms: _123  and  _124
REMARK   46  A    between atoms: _130  and  _131
REMARK   47  A    between atoms: _136  and  _138
REMARK   48  A    between atoms: _138  and  _139
REMARK   49  A    between atoms: _141  and  _143
REMARK   50  A    between atoms: _143  and  _144
REMARK   51  A    between atoms: _143  and  _146
REMARK   52  A    between atoms: _146  and  _147
REMARK   53  A    between atoms: _150  and  _152
REMARK   54  A    between atoms: _152  and  _153
REMARK   55  A    between atoms: _152  and  _155
REMARK   56  A    between atoms: _159  and  _160
REMARK   57  A    between atoms: _165  and  _167
REMARK   58  A    between atoms: _167  and  _168
REMARK   59  A    between atoms: _167  and  _170
REMARK   60  A    between atoms: _172  and  _174
REMARK   61  A    between atoms: _174  and  _175
REMARK   62  A    between atoms: _174  and  _177
REMARK   63  A    between atoms: _177  and  _178
REMARK   64  A    between atoms: _178  and  _179
REMARK   65  A    between atoms: _183  and  _184
REMARK   66  A    between atoms: _190  and  _191
REMARK   67  A    between atoms: _196  and  _198
REMARK   68  A    between atoms: _198  and  _199
REMARK   69  A    between atoms: _198  and  _201
REMARK   70  A    between atoms: _201  and  _202
REMARK   71  A    between atoms: _202  and  _203
REMARK   72  A    between atoms: _206  and  _208
REMARK   73  A    between atoms: _208  and  _209
REMARK   74  A    between atoms: _208  and  _211
REMARK   75  A    between atoms: _211  and  _212
REMARK   76  A    between atoms: _214  and  _216
REMARK   77  A    between atoms: _216  and  _217
REMARK   78  A    between atoms: _216  and  _219
REMARK   79  A    between atoms: _219  and  _220
REMARK   80  A    between atoms: _223  and  _225
REMARK   81  A    between atoms: _225  and  _226
REMARK   82  A    between atoms: _225  and  _228
REMARK   83  A    between atoms: _230  and  _232
REMARK   84  A    between atoms: _232  and  _233
REMARK   85  A    between atoms: _232  and  _235
REMARK   86  A    between atoms: _235  and  _236
REMARK   87  A    between atoms: _239  and  _241
REMARK   88  A    between atoms: _241  and  _242
REMARK   89  A    between atoms: _241  and  _244
REMARK   90  A    between atoms: _244  and  _245
REMARK   91  A    between atoms: _248  and  _250
REMARK   92  A    between atoms: _250  and  _251
REMARK   93  A    between atoms: _250  and  _253
REMARK   94  A    between atoms: _253  and  _254
REMARK                            x       y       z     vdW  Elec       q    Type
REMARK                         _______ _______ _______ _____ _____    ______ ____
ROOT
ATOM      1  O   HOH     1      94.069  94.509 -52.230  0.00  0.00    +0.000 OA
ENDROOT
TORSDOF 0
REMARK  Name = ../refined-set-2016/4agm/4agm_pocket.pdb
REMARK  94 active torsions:
REMARK  status: ('A' for Active; 'I' for Inactive)
REMARK    1  A    between atoms: _1  and  _3
REMARK    2  A    between atoms: _3  and  _4
REMARK    3  A    between atoms: _3  and  _6
REMARK    4  A    between atoms: _6  and  _7
REMARK    5  A    between atoms: _12  and  _13
REMARK    6  A    between atoms: _15  and  _17
REMARK    7  A    between atoms: _17  and  _18
REMARK    8  A    between atoms: _17  and  _20
REMARK    9  A    between atoms: _20  and  _21
REMARK   10  A    between atoms: _27  and  _29
REMARK   11  A    between atoms: _29  and  _30
REMARK   12  A    between atoms: _29  and  _32
REMARK   13  A    between atoms: _32  and  _33
REMARK   14  A    between atoms: _33  and  _34
REMARK   15  A    between atoms: _34  and  _35
REMARK   16  A    between atoms: _44  and  _46
REMARK   17  A    between atoms: _46  and  _47
REMARK   18  A    between atoms: _46  and  _49
REMARK   19  A    between atoms: _49  and  _50
REMARK   20  A    between atoms: _50  and  _51
REMARK   21  A    between atoms: _56  and  _58
REMARK   22  A    between atoms: _58  and  _59
REMARK   23  A    between atoms: _58  and  _61
REMARK   24  A    between atoms: _61  and  _62
REMARK   25  A    between atoms: _65  and  _67
REMARK   26  A    between atoms: _67  and  _68
REMARK   27  A    between atoms: _67  and  _70
REMARK   28  A    between atoms: _70  and  _71
REMARK   29  A    between atoms: _81  and  _83
REMARK   30  A    between atoms: _83  and  _84
REMARK   31  A    between atoms: _83  and  _86
REMARK   32  A    between atoms: _89  and  _91
REMARK   33  A    between atoms: _91  and  _92
REMARK   34  A    between atoms: _91  and  _94
REMARK   35  A    between atoms: _94  and  _95
REMARK   36  A    between atoms: _98  and  _100
REMARK   37  A    between atoms: _100  and  _101
REMARK   38  A    between atoms: _100  and  _103
REMARK   39  A    between atoms: _103  and  _104
REMARK   40  A    between atoms: _106  and  _108
REMARK   41  A    between atoms: _108  and  _109
REMARK   42  A    between atoms: _108  and  _111
REMARK   43  A    between atoms: _111  and  _112
REMARK   44  A    between atoms: _116  and  _117
REMARK   45  A    between atoms: _123  and  _124
REMARK   46  A    between atoms: _130  and  _131
REMARK   47  A    between atoms: _136  and  _138
REMARK   48  A    between atoms: _138  and  _139
REMARK   49  A    between atoms: _141  and  _143
REMARK   50  A    between atoms: _143  and  _144
REMARK   51  A    between atoms: _143  and  _146
REMARK   52  A    between atoms: _146  and  _147
REMARK   53  A    between atoms: _150  and  _152
REMARK   54  A    between atoms: _152  and  _153
REMARK   55  A    between atoms: _152  and  _155
REMARK   56  A    between atoms: _159  and  _160
REMARK   57  A    between atoms: _165  and  _167
REMARK   58  A    between atoms: _167  and  _168
REMARK   59  A    between atoms: _167  and  _170
REMARK   60  A    between atoms: _172  and  _174
REMARK   61  A    between atoms: _174  and  _175
REMARK   62  A    between atoms: _174  and  _177
REMARK   63  A    between atoms: _177  and  _178
REMARK   64  A    between atoms: _178  and  _179
REMARK   65  A    between atoms: _183  and  _184
REMARK   66  A    between atoms: _190  and  _191
REMARK   67  A    between atoms: _196  and  _198
REMARK   68  A    between atoms: _198  and  _199
REMARK   69  A    between atoms: _198  and  _201
REMARK   70  A    between atoms: _201  and  _202
REMARK   71  A    between atoms: _202  and  _203
REMARK   72  A    between atoms: _206  and  _208
REMARK   73  A    between atoms: _208  and  _209
REMARK   74  A    between atoms: _208  and  _211
REMARK   75  A    between atoms: _211  and  _212
REMARK   76  A    between atoms: _214  and  _216
REMARK   77  A    between atoms: _216  and  _217
REMARK   78  A    between atoms: _216  and  _219
REMARK   79  A    between atoms: _219  and  _220
REMARK   80  A    between atoms: _223  and  _225
REMARK   81  A    between atoms: _225  and  _226
REMARK   82  A    between atoms: _225  and  _228
REMARK   83  A    between atoms: _230  and  _232
REMARK   84  A    between atoms: _232  and  _233
REMARK   85  A    between atoms: _232  and  _235
REMARK   86  A    between atoms: _235  and  _236
REMARK   87  A    between atoms: _239  and  _241
REMARK   88  A    between atoms: _241  and  _242
REMARK   89  A    between atoms: _241  and  _244
REMARK   90  A    between atoms: _244  and  _245
REMARK   91  A    between atoms: _248  and  _250
REMARK   92  A    between atoms: _250  and  _251
REMARK   93  A    between atoms: _250  and  _253
REMARK   94  A    between atoms: _253  and  _254
REMARK                            x       y       z     vdW  Elec       q    Type
REMARK                         _______ _______ _______ _____ _____    ______ ____
ROOT
ATOM      1  O   HOH     1      87.960  95.295 -48.347  0.00  0.00    +0.000 OA
ENDROOT
TORSDOF 0
REMARK  Name = ../refined-set-2016/4agm/4agm_pocket.pdb
REMARK  94 active torsions:
REMARK  status: ('A' for Active; 'I' for Inactive)
REMARK    1  A    between atoms: _1  and  _3
REMARK    2  A    between atoms: _3  and  _4
REMARK    3  A    between atoms: _3  and  _6
REMARK    4  A    between atoms: _6  and  _7
REMARK    5  A    between atoms: _12  and  _13
REMARK    6  A    between atoms: _15  and  _17
REMARK    7  A    between atoms: _17  and  _18
REMARK    8  A    between atoms: _17  and  _20
REMARK    9  A    between atoms: _20  and  _21
REMARK   10  A    between atoms: _27  and  _29
REMARK   11  A    between atoms: _29  and  _30
REMARK   12  A    between atoms: _29  and  _32
REMARK   13  A    between atoms: _32  and  _33
REMARK   14  A    between atoms: _33  and  _34
REMARK   15  A    between atoms: _34  and  _35
REMARK   16  A    between atoms: _44  and  _46
REMARK   17  A    between atoms: _46  and  _47
REMARK   18  A    between atoms: _46  and  _49
REMARK   19  A    between atoms: _49  and  _50
REMARK   20  A    between atoms: _50  and  _51
REMARK   21  A    between atoms: _56  and  _58
REMARK   22  A    between atoms: _58  and  _59
REMARK   23  A    between atoms: _58  and  _61
REMARK   24  A    between atoms: _61  and  _62
REMARK   25  A    between atoms: _65  and  _67
REMARK   26  A    between atoms: _67  and  _68
REMARK   27  A    between atoms: _67  and  _70
REMARK   28  A    between atoms: _70  and  _71
REMARK   29  A    between atoms: _81  and  _83
REMARK   30  A    between atoms: _83  and  _84
REMARK   31  A    between atoms: _83  and  _86
REMARK   32  A    between atoms: _89  and  _91
REMARK   33  A    between atoms: _91  and  _92
REMARK   34  A    between atoms: _91  and  _94
REMARK   35  A    between atoms: _94  and  _95
REMARK   36  A    between atoms: _98  and  _100
REMARK   37  A    between atoms: _100  and  _101
REMARK   38  A    between atoms: _100  and  _103
REMARK   39  A    between atoms: _103  and  _104
REMARK   40  A    between atoms: _106  and  _108
REMARK   41  A    between atoms: _108  and  _109
REMARK   42  A    between atoms: _108  and  _111
REMARK   43  A    between atoms: _111  and  _112
REMARK   44  A    between atoms: _116  and  _117
REMARK   45  A    between atoms: _123  and  _124
REMARK   46  A    between atoms: _130  and  _131
REMARK   47  A    between atoms: _136  and  _138
REMARK   48  A    between atoms: _138  and  _139
REMARK   49  A    between atoms: _141  and  _143
REMARK   50  A    between atoms: _143  and  _144
REMARK   51  A    between atoms: _143  and  _146
REMARK   52  A    between atoms: _146  and  _147
REMARK   53  A    between atoms: _150  and  _152
REMARK   54  A    between atoms: _152  and  _153
REMARK   55  A    between atoms: _152  and  _155
REMARK   56  A    between atoms: _159  and  _160
REMARK   57  A    between atoms: _165  and  _167
REMARK   58  A    between atoms: _167  and  _168
REMARK   59  A    between atoms: _167  and  _170
REMARK   60  A    between atoms: _172  and  _174
REMARK   61  A    between atoms: _174  and  _175
REMARK   62  A    between atoms: _174  and  _177
REMARK   63  A    between atoms: _177  and  _178
REMARK   64  A    between atoms: _178  and  _179
REMARK   65  A    between atoms: _183  and  _184
REMARK   66  A    between atoms: _190  and  _191
REMARK   67  A    between atoms: _196  and  _198
REMARK   68  A    between atoms: _198  and  _199
REMARK   69  A    between atoms: _198  and  _201
REMARK   70  A    between atoms: _201  and  _202
REMARK   71  A    between atoms: _202  and  _203
REMARK   72  A    between atoms: _206  and  _208
REMARK   73  A    between atoms: _208  and  _209
REMARK   74  A    between atoms: _208  and  _211
REMARK   75  A    between atoms: _211  and  _212
REMARK   76  A    between atoms: _214  and  _216
REMARK   77  A    between atoms: _216  and  _217
REMARK   78  A    between atoms: _216  and  _219
REMARK   79  A    between atoms: _219  and  _220
REMARK   80  A    between atoms: _223  and  _225
REMARK   81  A    between atoms: _225  and  _226
REMARK   82  A    between atoms: _225  and  _228
REMARK   83  A    between atoms: _230  and  _232
REMARK   84  A    between atoms: _232  and  _233
REMARK   85  A    between atoms: _232  and  _235
REMARK   86  A    between atoms: _235  and  _236
REMARK   87  A    between atoms: _239  and  _241
REMARK   88  A    between atoms: _241  and  _242
REMARK   89  A    between atoms: _241  and  _244
REMARK   90  A    between atoms: _244  and  _245
REMARK   91  A    between atoms: _248  and  _250
REMARK   92  A    between atoms: _250  and  _251
REMARK   93  A    between atoms: _250  and  _253
REMARK   94  A    between atoms: _253  and  _254
REMARK                            x       y       z     vdW  Elec       q    Type
REMARK                         _______ _______ _______ _____ _____    ______ ____
ROOT
ATOM      1  O   HOH     1      89.441  89.566 -49.538  0.00  0.00    +0.000 OA
ENDROOT
TORSDOF 0
REMARK  Name = ../refined-set-2016/4agm/4agm_pocket.pdb
REMARK  94 active torsions:
REMARK  status: ('A' for Active; 'I' for Inactive)
REMARK    1  A    between atoms: _1  and  _3
REMARK    2  A    between atoms: _3  and  _4
REMARK    3  A    between atoms: _3  and  _6
REMARK    4  A    between atoms: _6  and  _7
REMARK    5  A    between atoms: _12  and  _13
REMARK    6  A    between atoms: _15  and  _17
REMARK    7  A    between atoms: _17  and  _18
REMARK    8  A    between atoms: _17  and  _20
REMARK    9  A    between atoms: _20  and  _21
REMARK   10  A    between atoms: _27  and  _29
REMARK   11  A    between atoms: _29  and  _30
REMARK   12  A    between atoms: _29  and  _32
REMARK   13  A    between atoms: _32  and  _33
REMARK   14  A    between atoms: _33  and  _34
REMARK   15  A    between atoms: _34  and  _35
REMARK   16  A    between atoms: _44  and  _46
REMARK   17  A    between atoms: _46  and  _47
REMARK   18  A    between atoms: _46  and  _49
REMARK   19  A    between atoms: _49  and  _50
REMARK   20  A    between atoms: _50  and  _51
REMARK   21  A    between atoms: _56  and  _58
REMARK   22  A    between atoms: _58  and  _59
REMARK   23  A    between atoms: _58  and  _61
REMARK   24  A    between atoms: _61  and  _62
REMARK   25  A    between atoms: _65  and  _67
REMARK   26  A    between atoms: _67  and  _68
REMARK   27  A    between atoms: _67  and  _70
REMARK   28  A    between atoms: _70  and  _71
REMARK   29  A    between atoms: _81  and  _83
REMARK   30  A    between atoms: _83  and  _84
REMARK   31  A    between atoms: _83  and  _86
REMARK   32  A    between atoms: _89  and  _91
REMARK   33  A    between atoms: _91  and  _92
REMARK   34  A    between atoms: _91  and  _94
REMARK   35  A    between atoms: _94  and  _95
REMARK   36  A    between atoms: _98  and  _100
REMARK   37  A    between atoms: _100  and  _101
REMARK   38  A    between atoms: _100  and  _103
REMARK   39  A    between atoms: _103  and  _104
REMARK   40  A    between atoms: _106  and  _108
REMARK   41  A    between atoms: _108  and  _109
REMARK   42  A    between atoms: _108  and  _111
REMARK   43  A    between atoms: _111  and  _112
REMARK   44  A    between atoms: _116  and  _117
REMARK   45  A    between atoms: _123  and  _124
REMARK   46  A    between atoms: _130  and  _131
REMARK   47  A    between atoms: _136  and  _138
REMARK   48  A    between atoms: _138  and  _139
REMARK   49  A    between atoms: _141  and  _143
REMARK   50  A    between atoms: _143  and  _144
REMARK   51  A    between atoms: _143  and  _146
REMARK   52  A    between atoms: _146  and  _147
REMARK   53  A    between atoms: _150  and  _152
REMARK   54  A    between atoms: _152  and  _153
REMARK   55  A    between atoms: _152  and  _155
REMARK   56  A    between atoms: _159  and  _160
REMARK   57  A    between atoms: _165  and  _167
REMARK   58  A    between atoms: _167  and  _168
REMARK   59  A    between atoms: _167  and  _170
REMARK   60  A    between atoms: _172  and  _174
REMARK   61  A    between atoms: _174  and  _175
REMARK   62  A    between atoms: _174  and  _177
REMARK   63  A    between atoms: _177  and  _178
REMARK   64  A    between atoms: _178  and  _179
REMARK   65  A    between atoms: _183  and  _184
REMARK   66  A    between atoms: _190  and  _191
REMARK   67  A    between atoms: _196  and  _198
REMARK   68  A    between atoms: _198  and  _199
REMARK   69  A    between atoms: _198  and  _201
REMARK   70  A    between atoms: _201  and  _202
REMARK   71  A    between atoms: _202  and  _203
REMARK   72  A    between atoms: _206  and  _208
REMARK   73  A    between atoms: _208  and  _209
REMARK   74  A    between atoms: _208  and  _211
REMARK   75  A    between atoms: _211  and  _212
REMARK   76  A    between atoms: _214  and  _216
REMARK   77  A    between atoms: _216  and  _217
REMARK   78  A    between atoms: _216  and  _219
REMARK   79  A    between atoms: _219  and  _220
REMARK   80  A    between atoms: _223  and  _225
REMARK   81  A    between atoms: _225  and  _226
REMARK   82  A    between atoms: _225  and  _228
REMARK   83  A    between atoms: _230  and  _232
REMARK   84  A    between atoms: _232  and  _233
REMARK   85  A    between atoms: _232  and  _235
REMARK   86  A    between atoms: _235  and  _236
REMARK   87  A    between atoms: _239  and  _241
REMARK   88  A    between atoms: _241  and  _242
REMARK   89  A    between atoms: _241  and  _244
REMARK   90  A    between atoms: _244  and  _245
REMARK   91  A    between atoms: _248  and  _250
REMARK   92  A    between atoms: _250  and  _251
REMARK   93  A    between atoms: _250  and  _253
REMARK   94  A    between atoms: _253  and  _254
REMARK                            x       y       z     vdW  Elec       q    Type
REMARK                         _______ _______ _______ _____ _____    ______ ____
ROOT
ATOM      1  O   HOH     1      88.563  92.747 -49.373  0.00  0.00    +0.000 OA
ENDROOT
TORSDOF 0
REMARK  Name = ../refined-set-2016/4agm/4agm_pocket.pdb
REMARK  94 active torsions:
REMARK  status: ('A' for Active; 'I' for Inactive)
REMARK    1  A    between atoms: _1  and  _3
REMARK    2  A    between atoms: _3  and  _4
REMARK    3  A    between atoms: _3  and  _6
REMARK    4  A    between atoms: _6  and  _7
REMARK    5  A    between atoms: _12  and  _13
REMARK    6  A    between atoms: _15  and  _17
REMARK    7  A    between atoms: _17  and  _18
REMARK    8  A    between atoms: _17  and  _20
REMARK    9  A    between atoms: _20  and  _21
REMARK   10  A    between atoms: _27  and  _29
REMARK   11  A    between atoms: _29  and  _30
REMARK   12  A    between atoms: _29  and  _32
REMARK   13  A    between atoms: _32  and  _33
REMARK   14  A    between atoms: _33  and  _34
REMARK   15  A    between atoms: _34  and  _35
REMARK   16  A    between atoms: _44  and  _46
REMARK   17  A    between atoms: _46  and  _47
REMARK   18  A    between atoms: _46  and  _49
REMARK   19  A    between atoms: _49  and  _50
REMARK   20  A    between atoms: _50  and  _51
REMARK   21  A    between atoms: _56  and  _58
REMARK   22  A    between atoms: _58  and  _59
REMARK   23  A    between atoms: _58  and  _61
REMARK   24  A    between atoms: _61  and  _62
REMARK   25  A    between atoms: _65  and  _67
REMARK   26  A    between atoms: _67  and  _68
REMARK   27  A    between atoms: _67  and  _70
REMARK   28  A    between atoms: _70  and  _71
REMARK   29  A    between atoms: _81  and  _83
REMARK   30  A    between atoms: _83  and  _84
REMARK   31  A    between atoms: _83  and  _86
REMARK   32  A    between atoms: _89  and  _91
REMARK   33  A    between atoms: _91  and  _92
REMARK   34  A    between atoms: _91  and  _94
REMARK   35  A    between atoms: _94  and  _95
REMARK   36  A    between atoms: _98  and  _100
REMARK   37  A    between atoms: _100  and  _101
REMARK   38  A    between atoms: _100  and  _103
REMARK   39  A    between atoms: _103  and  _104
REMARK   40  A    between atoms: _106  and  _108
REMARK   41  A    between atoms: _108  and  _109
REMARK   42  A    between atoms: _108  and  _111
REMARK   43  A    between atoms: _111  and  _112
REMARK   44  A    between atoms: _116  and  _117
REMARK   45  A    between atoms: _123  and  _124
REMARK   46  A    between atoms: _130  and  _131
REMARK   47  A    between atoms: _136  and  _138
REMARK   48  A    between atoms: _138  and  _139
REMARK   49  A    between atoms: _141  and  _143
REMARK   50  A    between atoms: _143  and  _144
REMARK   51  A    between atoms: _143  and  _146
REMARK   52  A    between atoms: _146  and  _147
REMARK   53  A    between atoms: _150  and  _152
REMARK   54  A    between atoms: _152  and  _153
REMARK   55  A    between atoms: _152  and  _155
REMARK   56  A    between atoms: _159  and  _160
REMARK   57  A    between atoms: _165  and  _167
REMARK   58  A    between atoms: _167  and  _168
REMARK   59  A    between atoms: _167  and  _170
REMARK   60  A    between atoms: _172  and  _174
REMARK   61  A    between atoms: _174  and  _175
REMARK   62  A    between atoms: _174  and  _177
REMARK   63  A    between atoms: _177  and  _178
REMARK   64  A    between atoms: _178  and  _179
REMARK   65  A    between atoms: _183  and  _184
REMARK   66  A    between atoms: _190  and  _191
REMARK   67  A    between atoms: _196  and  _198
REMARK   68  A    between atoms: _198  and  _199
REMARK   69  A    between atoms: _198  and  _201
REMARK   70  A    between atoms: _201  and  _202
REMARK   71  A    between atoms: _202  and  _203
REMARK   72  A    between atoms: _206  and  _208
REMARK   73  A    between atoms: _208  and  _209
REMARK   74  A    between atoms: _208  and  _211
REMARK   75  A    between atoms: _211  and  _212
REMARK   76  A    between atoms: _214  and  _216
REMARK   77  A    between atoms: _216  and  _217
REMARK   78  A    between atoms: _216  and  _219
REMARK   79  A    between atoms: _219  and  _220
REMARK   80  A    between atoms: _223  and  _225
REMARK   81  A    between atoms: _225  and  _226
REMARK   82  A    between atoms: _225  and  _228
REMARK   83  A    between atoms: _230  and  _232
REMARK   84  A    between atoms: _232  and  _233
REMARK   85  A    between atoms: _232  and  _235
REMARK   86  A    between atoms: _235  and  _236
REMARK   87  A    between atoms: _239  and  _241
REMARK   88  A    between atoms: _241  and  _242
REMARK   89  A    between atoms: _241  and  _244
REMARK   90  A    between atoms: _244  and  _245
REMARK   91  A    between atoms: _248  and  _250
REMARK   92  A    between atoms: _250  and  _251
REMARK   93  A    between atoms: _250  and  _253
REMARK   94  A    between atoms: _253  and  _254
REMARK                            x       y       z     vdW  Elec       q    Type
REMARK                         _______ _______ _______ _____ _____    ______ ____
ROOT
ATOM      1  O   HOH     1      91.741  93.607 -52.569  0.00  0.00    +0.000 OA
ENDROOT
TORSDOF 0
REMARK  Name = ../refined-set-2016/4agm/4agm_pocket.pdb
REMARK  94 active torsions:
REMARK  status: ('A' for Active; 'I' for Inactive)
REMARK    1  A    between atoms: _1  and  _3
REMARK    2  A    between atoms: _3  and  _4
REMARK    3  A    between atoms: _3  and  _6
REMARK    4  A    between atoms: _6  and  _7
REMARK    5  A    between atoms: _12  and  _13
REMARK    6  A    between atoms: _15  and  _17
REMARK    7  A    between atoms: _17  and  _18
REMARK    8  A    between atoms: _17  and  _20
REMARK    9  A    between atoms: _20  and  _21
REMARK   10  A    between atoms: _27  and  _29
REMARK   11  A    between atoms: _29  and  _30
REMARK   12  A    between atoms: _29  and  _32
REMARK   13  A    between atoms: _32  and  _33
REMARK   14  A    between atoms: _33  and  _34
REMARK   15  A    between atoms: _34  and  _35
REMARK   16  A    between atoms: _44  and  _46
REMARK   17  A    between atoms: _46  and  _47
REMARK   18  A    between atoms: _46  and  _49
REMARK   19  A    between atoms: _49  and  _50
REMARK   20  A    between atoms: _50  and  _51
REMARK   21  A    between atoms: _56  and  _58
REMARK   22  A    between atoms: _58  and  _59
REMARK   23  A    between atoms: _58  and  _61
REMARK   24  A    between atoms: _61  and  _62
REMARK   25  A    between atoms: _65  and  _67
REMARK   26  A    between atoms: _67  and  _68
REMARK   27  A    between atoms: _67  and  _70
REMARK   28  A    between atoms: _70  and  _71
REMARK   29  A    between atoms: _81  and  _83
REMARK   30  A    between atoms: _83  and  _84
REMARK   31  A    between atoms: _83  and  _86
REMARK   32  A    between atoms: _89  and  _91
REMARK   33  A    between atoms: _91  and  _92
REMARK   34  A    between atoms: _91  and  _94
REMARK   35  A    between atoms: _94  and  _95
REMARK   36  A    between atoms: _98  and  _100
REMARK   37  A    between atoms: _100  and  _101
REMARK   38  A    between atoms: _100  and  _103
REMARK   39  A    between atoms: _103  and  _104
REMARK   40  A    between atoms: _106  and  _108
REMARK   41  A    between atoms: _108  and  _109
REMARK   42  A    between atoms: _108  and  _111
REMARK   43  A    between atoms: _111  and  _112
REMARK   44  A    between atoms: _116  and  _117
REMARK   45  A    between atoms: _123  and  _124
REMARK   46  A    between atoms: _130  and  _131
REMARK   47  A    between atoms: _136  and  _138
REMARK   48  A    between atoms: _138  and  _139
REMARK   49  A    between atoms: _141  and  _143
REMARK   50  A    between atoms: _143  and  _144
REMARK   51  A    between atoms: _143  and  _146
REMARK   52  A    between atoms: _146  and  _147
REMARK   53  A    between atoms: _150  and  _152
REMARK   54  A    between atoms: _152  and  _153
REMARK   55  A    between atoms: _152  and  _155
REMARK   56  A    between atoms: _159  and  _160
REMARK   57  A    between atoms: _165  and  _167
REMARK   58  A    between atoms: _167  and  _168
REMARK   59  A    between atoms: _167  and  _170
REMARK   60  A    between atoms: _172  and  _174
REMARK   61  A    between atoms: _174  and  _175
REMARK   62  A    between atoms: _174  and  _177
REMARK   63  A    between atoms: _177  and  _178
REMARK   64  A    between atoms: _178  and  _179
REMARK   65  A    between atoms: _183  and  _184
REMARK   66  A    between atoms: _190  and  _191
REMARK   67  A    between atoms: _196  and  _198
REMARK   68  A    between atoms: _198  and  _199
REMARK   69  A    between atoms: _198  and  _201
REMARK   70  A    between atoms: _201  and  _202
REMARK   71  A    between atoms: _202  and  _203
REMARK   72  A    between atoms: _206  and  _208
REMARK   73  A    between atoms: _208  and  _209
REMARK   74  A    between atoms: _208  and  _211
REMARK   75  A    between atoms: _211  and  _212
REMARK   76  A    between atoms: _214  and  _216
REMARK   77  A    between atoms: _216  and  _217
REMARK   78  A    between atoms: _216  and  _219
REMARK   79  A    between atoms: _219  and  _220
REMARK   80  A    between atoms: _223  and  _225
REMARK   81  A    between atoms: _225  and  _226
REMARK   82  A    between atoms: _225  and  _228
REMARK   83  A    between atoms: _230  and  _232
REMARK   84  A    between atoms: _232  and  _233
REMARK   85  A    between atoms: _232  and  _235
REMARK   86  A    between atoms: _235  and  _236
REMARK   87  A    between atoms: _239  and  _241
REMARK   88  A    between atoms: _241  and  _242
REMARK   89  A    between atoms: _241  and  _244
REMARK   90  A    between atoms: _244  and  _245
REMARK   91  A    between atoms: _248  and  _250
REMARK   92  A    between atoms: _250  and  _251
REMARK   93  A    between atoms: _250  and  _253
REMARK   94  A    between atoms: _253  and  _254
REMARK                            x       y       z     vdW  Elec       q    Type
REMARK                         _______ _______ _______ _____ _____    ______ ____
ROOT
ATOM      1  O   HOH     1      86.007  99.737 -46.886  0.00  0.00    +0.000 OA
ENDROOT
TORSDOF 0
REMARK  Name = ../refined-set-2016/4agm/4agm_pocket.pdb
REMARK  94 active torsions:
REMARK  status: ('A' for Active; 'I' for Inactive)
REMARK    1  A    between atoms: _1  and  _3
REMARK    2  A    between atoms: _3  and  _4
REMARK    3  A    between atoms: _3  and  _6
REMARK    4  A    between atoms: _6  and  _7
REMARK    5  A    between atoms: _12  and  _13
REMARK    6  A    between atoms: _15  and  _17
REMARK    7  A    between atoms: _17  and  _18
REMARK    8  A    between atoms: _17  and  _20
REMARK    9  A    between atoms: _20  and  _21
REMARK   10  A    between atoms: _27  and  _29
REMARK   11  A    between atoms: _29  and  _30
REMARK   12  A    between atoms: _29  and  _32
REMARK   13  A    between atoms: _32  and  _33
REMARK   14  A    between atoms: _33  and  _34
REMARK   15  A    between atoms: _34  and  _35
REMARK   16  A    between atoms: _44  and  _46
REMARK   17  A    between atoms: _46  and  _47
REMARK   18  A    between atoms: _46  and  _49
REMARK   19  A    between atoms: _49  and  _50
REMARK   20  A    between atoms: _50  and  _51
REMARK   21  A    between atoms: _56  and  _58
REMARK   22  A    between atoms: _58  and  _59
REMARK   23  A    between atoms: _58  and  _61
REMARK   24  A    between atoms: _61  and  _62
REMARK   25  A    between atoms: _65  and  _67
REMARK   26  A    between atoms: _67  and  _68
REMARK   27  A    between atoms: _67  and  _70
REMARK   28  A    between atoms: _70  and  _71
REMARK   29  A    between atoms: _81  and  _83
REMARK   30  A    between atoms: _83  and  _84
REMARK   31  A    between atoms: _83  and  _86
REMARK   32  A    between atoms: _89  and  _91
REMARK   33  A    between atoms: _91  and  _92
REMARK   34  A    between atoms: _91  and  _94
REMARK   35  A    between atoms: _94  and  _95
REMARK   36  A    between atoms: _98  and  _100
REMARK   37  A    between atoms: _100  and  _101
REMARK   38  A    between atoms: _100  and  _103
REMARK   39  A    between atoms: _103  and  _104
REMARK   40  A    between atoms: _106  and  _108
REMARK   41  A    between atoms: _108  and  _109
REMARK   42  A    between atoms: _108  and  _111
REMARK   43  A    between atoms: _111  and  _112
REMARK   44  A    between atoms: _116  and  _117
REMARK   45  A    between atoms: _123  and  _124
REMARK   46  A    between atoms: _130  and  _131
REMARK   47  A    between atoms: _136  and  _138
REMARK   48  A    between atoms: _138  and  _139
REMARK   49  A    between atoms: _141  and  _143
REMARK   50  A    between atoms: _143  and  _144
REMARK   51  A    between atoms: _143  and  _146
REMARK   52  A    between atoms: _146  and  _147
REMARK   53  A    between atoms: _150  and  _152
REMARK   54  A    between atoms: _152  and  _153
REMARK   55  A    between atoms: _152  and  _155
REMARK   56  A    between atoms: _159  and  _160
REMARK   57  A    between atoms: _165  and  _167
REMARK   58  A    between atoms: _167  and  _168
REMARK   59  A    between atoms: _167  and  _170
REMARK   60  A    between atoms: _172  and  _174
REMARK   61  A    between atoms: _174  and  _175
REMARK   62  A    between atoms: _174  and  _177
REMARK   63  A    between atoms: _177  and  _178
REMARK   64  A    between atoms: _178  and  _179
REMARK   65  A    between atoms: _183  and  _184
REMARK   66  A    between atoms: _190  and  _191
REMARK   67  A    between atoms: _196  and  _198
REMARK   68  A    between atoms: _198  and  _199
REMARK   69  A    between atoms: _198  and  _201
REMARK   70  A    between atoms: _201  and  _202
REMARK   71  A    between atoms: _202  and  _203
REMARK   72  A    between atoms: _206  and  _208
REMARK   73  A    between atoms: _208  and  _209
REMARK   74  A    between atoms: _208  and  _211
REMARK   75  A    between atoms: _211  and  _212
REMARK   76  A    between atoms: _214  and  _216
REMARK   77  A    between atoms: _216  and  _217
REMARK   78  A    between atoms: _216  and  _219
REMARK   79  A    between atoms: _219  and  _220
REMARK   80  A    between atoms: _223  and  _225
REMARK   81  A    between atoms: _225  and  _226
REMARK   82  A    between atoms: _225  and  _228
REMARK   83  A    between atoms: _230  and  _232
REMARK   84  A    between atoms: _232  and  _233
REMARK   85  A    between atoms: _232  and  _235
REMARK   86  A    between atoms: _235  and  _236
REMARK   87  A    between atoms: _239  and  _241
REMARK   88  A    between atoms: _241  and  _242
REMARK   89  A    between atoms: _241  and  _244
REMARK   90  A    between atoms: _244  and  _245
REMARK   91  A    between atoms: _248  and  _250
REMARK   92  A    between atoms: _250  and  _251
REMARK   93  A    between atoms: _250  and  _253
REMARK   94  A    between atoms: _253  and  _254
REMARK                            x       y       z     vdW  Elec       q    Type
REMARK                         _______ _______ _______ _____ _____    ______ ____
ROOT
ATOM      1  O   HOH     1      90.865  91.678 -50.585  0.00  0.00    +0.000 OA
ENDROOT
TORSDOF 0
REMARK  Name = ../refined-set-2016/4agm/4agm_pocket.pdb
REMARK  94 active torsions:
REMARK  status: ('A' for Active; 'I' for Inactive)
REMARK    1  A    between atoms: _1  and  _3
REMARK    2  A    between atoms: _3  and  _4
REMARK    3  A    between atoms: _3  and  _6
REMARK    4  A    between atoms: _6  and  _7
REMARK    5  A    between atoms: _12  and  _13
REMARK    6  A    between atoms: _15  and  _17
REMARK    7  A    between atoms: _17  and  _18
REMARK    8  A    between atoms: _17  and  _20
REMARK    9  A    between atoms: _20  and  _21
REMARK   10  A    between atoms: _27  and  _29
REMARK   11  A    between atoms: _29  and  _30
REMARK   12  A    between atoms: _29  and  _32
REMARK   13  A    between atoms: _32  and  _33
REMARK   14  A    between atoms: _33  and  _34
REMARK   15  A    between atoms: _34  and  _35
REMARK   16  A    between atoms: _44  and  _46
REMARK   17  A    between atoms: _46  and  _47
REMARK   18  A    between atoms: _46  and  _49
REMARK   19  A    between atoms: _49  and  _50
REMARK   20  A    between atoms: _50  and  _51
REMARK   21  A    between atoms: _56  and  _58
REMARK   22  A    between atoms: _58  and  _59
REMARK   23  A    between atoms: _58  and  _61
REMARK   24  A    between atoms: _61  and  _62
REMARK   25  A    between atoms: _65  and  _67
REMARK   26  A    between atoms: _67  and  _68
REMARK   27  A    between atoms: _67  and  _70
REMARK   28  A    between atoms: _70  and  _71
REMARK   29  A    between atoms: _81  and  _83
REMARK   30  A    between atoms: _83  and  _84
REMARK   31  A    between atoms: _83  and  _86
REMARK   32  A    between atoms: _89  and  _91
REMARK   33  A    between atoms: _91  and  _92
REMARK   34  A    between atoms: _91  and  _94
REMARK   35  A    between atoms: _94  and  _95
REMARK   36  A    between atoms: _98  and  _100
REMARK   37  A    between atoms: _100  and  _101
REMARK   38  A    between atoms: _100  and  _103
REMARK   39  A    between atoms: _103  and  _104
REMARK   40  A    between atoms: _106  and  _108
REMARK   41  A    between atoms: _108  and  _109
REMARK   42  A    between atoms: _108  and  _111
REMARK   43  A    between atoms: _111  and  _112
REMARK   44  A    between atoms: _116  and  _117
REMARK   45  A    between atoms: _123  and  _124
REMARK   46  A    between atoms: _130  and  _131
REMARK   47  A    between atoms: _136  and  _138
REMARK   48  A    between atoms: _138  and  _139
REMARK   49  A    between atoms: _141  and  _143
REMARK   50  A    between atoms: _143  and  _144
REMARK   51  A    between atoms: _143  and  _146
REMARK   52  A    between atoms: _146  and  _147
REMARK   53  A    between atoms: _150  and  _152
REMARK   54  A    between atoms: _152  and  _153
REMARK   55  A    between atoms: _152  and  _155
REMARK   56  A    between atoms: _159  and  _160
REMARK   57  A    between atoms: _165  and  _167
REMARK   58  A    between atoms: _167  and  _168
REMARK   59  A    between atoms: _167  and  _170
REMARK   60  A    between atoms: _172  and  _174
REMARK   61  A    between atoms: _174  and  _175
REMARK   62  A    between atoms: _174  and  _177
REMARK   63  A    between atoms: _177  and  _178
REMARK   64  A    between atoms: _178  and  _179
REMARK   65  A    between atoms: _183  and  _184
REMARK   66  A    between atoms: _190  and  _191
REMARK   67  A    between atoms: _196  and  _198
REMARK   68  A    between atoms: _198  and  _199
REMARK   69  A    between atoms: _198  and  _201
REMARK   70  A    between atoms: _201  and  _202
REMARK   71  A    between atoms: _202  and  _203
REMARK   72  A    between atoms: _206  and  _208
REMARK   73  A    between atoms: _208  and  _209
REMARK   74  A    between atoms: _208  and  _211
REMARK   75  A    between atoms: _211  and  _212
REMARK   76  A    between atoms: _214  and  _216
REMARK   77  A    between atoms: _216  and  _217
REMARK   78  A    between atoms: _216  and  _219
REMARK   79  A    between atoms: _219  and  _220
REMARK   80  A    between atoms: _223  and  _225
REMARK   81  A    between atoms: _225  and  _226
REMARK   82  A    between atoms: _225  and  _228
REMARK   83  A    between atoms: _230  and  _232
REMARK   84  A    between atoms: _232  and  _233
REMARK   85  A    between atoms: _232  and  _235
REMARK   86  A    between atoms: _235  and  _236
REMARK   87  A    between atoms: _239  and  _241
REMARK   88  A    between atoms: _241  and  _242
REMARK   89  A    between atoms: _241  and  _244
REMARK   90  A    between atoms: _244  and  _245
REMARK   91  A    between atoms: _248  and  _250
REMARK   92  A    between atoms: _250  and  _251
REMARK   93  A    between atoms: _250  and  _253
REMARK   94  A    between atoms: _253  and  _254
REMARK                            x       y       z     vdW  Elec       q    Type
REMARK                         _______ _______ _______ _____ _____    ______ ____
ROOT
ATOM      1  O   HOH     1      92.317  88.042 -48.037  0.00  0.00    +0.000 OA
ENDROOT
TORSDOF 0
REMARK  Name = ../refined-set-2016/4agm/4agm_pocket.pdb
REMARK  94 active torsions:
REMARK  status: ('A' for Active; 'I' for Inactive)
REMARK    1  A    between atoms: _1  and  _3
REMARK    2  A    between atoms: _3  and  _4
REMARK    3  A    between atoms: _3  and  _6
REMARK    4  A    between atoms: _6  and  _7
REMARK    5  A    between atoms: _12  and  _13
REMARK    6  A    between atoms: _15  and  _17
REMARK    7  A    between atoms: _17  and  _18
REMARK    8  A    between atoms: _17  and  _20
REMARK    9  A    between atoms: _20  and  _21
REMARK   10  A    between atoms: _27  and  _29
REMARK   11  A    between atoms: _29  and  _30
REMARK   12  A    between atoms: _29  and  _32
REMARK   13  A    between atoms: _32  and  _33
REMARK   14  A    between atoms: _33  and  _34
REMARK   15  A    between atoms: _34  and  _35
REMARK   16  A    between atoms: _44  and  _46
REMARK   17  A    between atoms: _46  and  _47
REMARK   18  A    between atoms: _46  and  _49
REMARK   19  A    between atoms: _49  and  _50
REMARK   20  A    between atoms: _50  and  _51
REMARK   21  A    between atoms: _56  and  _58
REMARK   22  A    between atoms: _58  and  _59
REMARK   23  A    between atoms: _58  and  _61
REMARK   24  A    between atoms: _61  and  _62
REMARK   25  A    between atoms: _65  and  _67
REMARK   26  A    between atoms: _67  and  _68
REMARK   27  A    between atoms: _67  and  _70
REMARK   28  A    between atoms: _70  and  _71
REMARK   29  A    between atoms: _81  and  _83
REMARK   30  A    between atoms: _83  and  _84
REMARK   31  A    between atoms: _83  and  _86
REMARK   32  A    between atoms: _89  and  _91
REMARK   33  A    between atoms: _91  and  _92
REMARK   34  A    between atoms: _91  and  _94
REMARK   35  A    between atoms: _94  and  _95
REMARK   36  A    between atoms: _98  and  _100
REMARK   37  A    between atoms: _100  and  _101
REMARK   38  A    between atoms: _100  and  _103
REMARK   39  A    between atoms: _103  and  _104
REMARK   40  A    between atoms: _106  and  _108
REMARK   41  A    between atoms: _108  and  _109
REMARK   42  A    between atoms: _108  and  _111
REMARK   43  A    between atoms: _111  and  _112
REMARK   44  A    between atoms: _116  and  _117
REMARK   45  A    between atoms: _123  and  _124
REMARK   46  A    between atoms: _130  and  _131
REMARK   47  A    between atoms: _136  and  _138
REMARK   48  A    between atoms: _138  and  _139
REMARK   49  A    between atoms: _141  and  _143
REMARK   50  A    between atoms: _143  and  _144
REMARK   51  A    between atoms: _143  and  _146
REMARK   52  A    between atoms: _146  and  _147
REMARK   53  A    between atoms: _150  and  _152
REMARK   54  A    between atoms: _152  and  _153
REMARK   55  A    between atoms: _152  and  _155
REMARK   56  A    between atoms: _159  and  _160
REMARK   57  A    between atoms: _165  and  _167
REMARK   58  A    between atoms: _167  and  _168
REMARK   59  A    between atoms: _167  and  _170
REMARK   60  A    between atoms: _172  and  _174
REMARK   61  A    between atoms: _174  and  _175
REMARK   62  A    between atoms: _174  and  _177
REMARK   63  A    between atoms: _177  and  _178
REMARK   64  A    between atoms: _178  and  _179
REMARK   65  A    between atoms: _183  and  _184
REMARK   66  A    between atoms: _190  and  _191
REMARK   67  A    between atoms: _196  and  _198
REMARK   68  A    between atoms: _198  and  _199
REMARK   69  A    between atoms: _198  and  _201
REMARK   70  A    between atoms: _201  and  _202
REMARK   71  A    between atoms: _202  and  _203
REMARK   72  A    between atoms: _206  and  _208
REMARK   73  A    between atoms: _208  and  _209
REMARK   74  A    between atoms: _208  and  _211
REMARK   75  A    between atoms: _211  and  _212
REMARK   76  A    between atoms: _214  and  _216
REMARK   77  A    between atoms: _216  and  _217
REMARK   78  A    between atoms: _216  and  _219
REMARK   79  A    between atoms: _219  and  _220
REMARK   80  A    between atoms: _223  and  _225
REMARK   81  A    between atoms: _225  and  _226
REMARK   82  A    between atoms: _225  and  _228
REMARK   83  A    between atoms: _230  and  _232
REMARK   84  A    between atoms: _232  and  _233
REMARK   85  A    between atoms: _232  and  _235
REMARK   86  A    between atoms: _235  and  _236
REMARK   87  A    between atoms: _239  and  _241
REMARK   88  A    between atoms: _241  and  _242
REMARK   89  A    between atoms: _241  and  _244
REMARK   90  A    between atoms: _244  and  _245
REMARK   91  A    between atoms: _248  and  _250
REMARK   92  A    between atoms: _250  and  _251
REMARK   93  A    between atoms: _250  and  _253
REMARK   94  A    between atoms: _253  and  _254
REMARK                            x       y       z     vdW  Elec       q    Type
REMARK                         _______ _______ _______ _____ _____    ______ ____
ROOT
ATOM      1  O   HOH     1      90.371  86.257 -49.827  0.00  0.00    +0.000 OA
ENDROOT
TORSDOF 0
REMARK  Name = ../refined-set-2016/4agm/4agm_pocket.pdb
REMARK  94 active torsions:
REMARK  status: ('A' for Active; 'I' for Inactive)
REMARK    1  A    between atoms: _1  and  _3
REMARK    2  A    between atoms: _3  and  _4
REMARK    3  A    between atoms: _3  and  _6
REMARK    4  A    between atoms: _6  and  _7
REMARK    5  A    between atoms: _12  and  _13
REMARK    6  A    between atoms: _15  and  _17
REMARK    7  A    between atoms: _17  and  _18
REMARK    8  A    between atoms: _17  and  _20
REMARK    9  A    between atoms: _20  and  _21
REMARK   10  A    between atoms: _27  and  _29
REMARK   11  A    between atoms: _29  and  _30
REMARK   12  A    between atoms: _29  and  _32
REMARK   13  A    between atoms: _32  and  _33
REMARK   14  A    between atoms: _33  and  _34
REMARK   15  A    between atoms: _34  and  _35
REMARK   16  A    between atoms: _44  and  _46
REMARK   17  A    between atoms: _46  and  _47
REMARK   18  A    between atoms: _46  and  _49
REMARK   19  A    between atoms: _49  and  _50
REMARK   20  A    between atoms: _50  and  _51
REMARK   21  A    between atoms: _56  and  _58
REMARK   22  A    between atoms: _58  and  _59
REMARK   23  A    between atoms: _58  and  _61
REMARK   24  A    between atoms: _61  and  _62
REMARK   25  A    between atoms: _65  and  _67
REMARK   26  A    between atoms: _67  and  _68
REMARK   27  A    between atoms: _67  and  _70
REMARK   28  A    between atoms: _70  and  _71
REMARK   29  A    between atoms: _81  and  _83
REMARK   30  A    between atoms: _83  and  _84
REMARK   31  A    between atoms: _83  and  _86
REMARK   32  A    between atoms: _89  and  _91
REMARK   33  A    between atoms: _91  and  _92
REMARK   34  A    between atoms: _91  and  _94
REMARK   35  A    between atoms: _94  and  _95
REMARK   36  A    between atoms: _98  and  _100
REMARK   37  A    between atoms: _100  and  _101
REMARK   38  A    between atoms: _100  and  _103
REMARK   39  A    between atoms: _103  and  _104
REMARK   40  A    between atoms: _106  and  _108
REMARK   41  A    between atoms: _108  and  _109
REMARK   42  A    between atoms: _108  and  _111
REMARK   43  A    between atoms: _111  and  _112
REMARK   44  A    between atoms: _116  and  _117
REMARK   45  A    between atoms: _123  and  _124
REMARK   46  A    between atoms: _130  and  _131
REMARK   47  A    between atoms: _136  and  _138
REMARK   48  A    between atoms: _138  and  _139
REMARK   49  A    between atoms: _141  and  _143
REMARK   50  A    between atoms: _143  and  _144
REMARK   51  A    between atoms: _143  and  _146
REMARK   52  A    between atoms: _146  and  _147
REMARK   53  A    between atoms: _150  and  _152
REMARK   54  A    between atoms: _152  and  _153
REMARK   55  A    between atoms: _152  and  _155
REMARK   56  A    between atoms: _159  and  _160
REMARK   57  A    between atoms: _165  and  _167
REMARK   58  A    between atoms: _167  and  _168
REMARK   59  A    between atoms: _167  and  _170
REMARK   60  A    between atoms: _172  and  _174
REMARK   61  A    between atoms: _174  and  _175
REMARK   62  A    between atoms: _174  and  _177
REMARK   63  A    between atoms: _177  and  _178
REMARK   64  A    between atoms: _178  and  _179
REMARK   65  A    between atoms: _183  and  _184
REMARK   66  A    between atoms: _190  and  _191
REMARK   67  A    between atoms: _196  and  _198
REMARK   68  A    between atoms: _198  and  _199
REMARK   69  A    between atoms: _198  and  _201
REMARK   70  A    between atoms: _201  and  _202
REMARK   71  A    between atoms: _202  and  _203
REMARK   72  A    between atoms: _206  and  _208
REMARK   73  A    between atoms: _208  and  _209
REMARK   74  A    between atoms: _208  and  _211
REMARK   75  A    between atoms: _211  and  _212
REMARK   76  A    between atoms: _214  and  _216
REMARK   77  A    between atoms: _216  and  _217
REMARK   78  A    between atoms: _216  and  _219
REMARK   79  A    between atoms: _219  and  _220
REMARK   80  A    between atoms: _223  and  _225
REMARK   81  A    between atoms: _225  and  _226
REMARK   82  A    between atoms: _225  and  _228
REMARK   83  A    between atoms: _230  and  _232
REMARK   84  A    between atoms: _232  and  _233
REMARK   85  A    between atoms: _232  and  _235
REMARK   86  A    between atoms: _235  and  _236
REMARK   87  A    between atoms: _239  and  _241
REMARK   88  A    between atoms: _241  and  _242
REMARK   89  A    between atoms: _241  and  _244
REMARK   90  A    between atoms: _244  and  _245
REMARK   91  A    between atoms: _248  and  _250
REMARK   92  A    between atoms: _250  and  _251
REMARK   93  A    between atoms: _250  and  _253
REMARK   94  A    between atoms: _253  and  _254
REMARK                            x       y       z     vdW  Elec       q    Type
REMARK                         _______ _______ _______ _____ _____    ______ ____
ROOT
ATOM      1  O   HOH     1      92.153  84.550 -48.081  0.00  0.00    +0.000 OA
ENDROOT
TORSDOF 0
REMARK  Name = ../refined-set-2016/4agm/4agm_pocket.pdb
REMARK  94 active torsions:
REMARK  status: ('A' for Active; 'I' for Inactive)
REMARK    1  A    between atoms: _1  and  _3
REMARK    2  A    between atoms: _3  and  _4
REMARK    3  A    between atoms: _3  and  _6
REMARK    4  A    between atoms: _6  and  _7
REMARK    5  A    between atoms: _12  and  _13
REMARK    6  A    between atoms: _15  and  _17
REMARK    7  A    between atoms: _17  and  _18
REMARK    8  A    between atoms: _17  and  _20
REMARK    9  A    between atoms: _20  and  _21
REMARK   10  A    between atoms: _27  and  _29
REMARK   11  A    between atoms: _29  and  _30
REMARK   12  A    between atoms: _29  and  _32
REMARK   13  A    between atoms: _32  and  _33
REMARK   14  A    between atoms: _33  and  _34
REMARK   15  A    between atoms: _34  and  _35
REMARK   16  A    between atoms: _44  and  _46
REMARK   17  A    between atoms: _46  and  _47
REMARK   18  A    between atoms: _46  and  _49
REMARK   19  A    between atoms: _49  and  _50
REMARK   20  A    between atoms: _50  and  _51
REMARK   21  A    between atoms: _56  and  _58
REMARK   22  A    between atoms: _58  and  _59
REMARK   23  A    between atoms: _58  and  _61
REMARK   24  A    between atoms: _61  and  _62
REMARK   25  A    between atoms: _65  and  _67
REMARK   26  A    between atoms: _67  and  _68
REMARK   27  A    between atoms: _67  and  _70
REMARK   28  A    between atoms: _70  and  _71
REMARK   29  A    between atoms: _81  and  _83
REMARK   30  A    between atoms: _83  and  _84
REMARK   31  A    between atoms: _83  and  _86
REMARK   32  A    between atoms: _89  and  _91
REMARK   33  A    between atoms: _91  and  _92
REMARK   34  A    between atoms: _91  and  _94
REMARK   35  A    between atoms: _94  and  _95
REMARK   36  A    between atoms: _98  and  _100
REMARK   37  A    between atoms: _100  and  _101
REMARK   38  A    between atoms: _100  and  _103
REMARK   39  A    between atoms: _103  and  _104
REMARK   40  A    between atoms: _106  and  _108
REMARK   41  A    between atoms: _108  and  _109
REMARK   42  A    between atoms: _108  and  _111
REMARK   43  A    between atoms: _111  and  _112
REMARK   44  A    between atoms: _116  and  _117
REMARK   45  A    between atoms: _123  and  _124
REMARK   46  A    between atoms: _130  and  _131
REMARK   47  A    between atoms: _136  and  _138
REMARK   48  A    between atoms: _138  and  _139
REMARK   49  A    between atoms: _141  and  _143
REMARK   50  A    between atoms: _143  and  _144
REMARK   51  A    between atoms: _143  and  _146
REMARK   52  A    between atoms: _146  and  _147
REMARK   53  A    between atoms: _150  and  _152
REMARK   54  A    between atoms: _152  and  _153
REMARK   55  A    between atoms: _152  and  _155
REMARK   56  A    between atoms: _159  and  _160
REMARK   57  A    between atoms: _165  and  _167
REMARK   58  A    between atoms: _167  and  _168
REMARK   59  A    between atoms: _167  and  _170
REMARK   60  A    between atoms: _172  and  _174
REMARK   61  A    between atoms: _174  and  _175
REMARK   62  A    between atoms: _174  and  _177
REMARK   63  A    between atoms: _177  and  _178
REMARK   64  A    between atoms: _178  and  _179
REMARK   65  A    between atoms: _183  and  _184
REMARK   66  A    between atoms: _190  and  _191
REMARK   67  A    between atoms: _196  and  _198
REMARK   68  A    between atoms: _198  and  _199
REMARK   69  A    between atoms: _198  and  _201
REMARK   70  A    between atoms: _201  and  _202
REMARK   71  A    between atoms: _202  and  _203
REMARK   72  A    between atoms: _206  and  _208
REMARK   73  A    between atoms: _208  and  _209
REMARK   74  A    between atoms: _208  and  _211
REMARK   75  A    between atoms: _211  and  _212
REMARK   76  A    between atoms: _214  and  _216
REMARK   77  A    between atoms: _216  and  _217
REMARK   78  A    between atoms: _216  and  _219
REMARK   79  A    between atoms: _219  and  _220
REMARK   80  A    between atoms: _223  and  _225
REMARK   81  A    between atoms: _225  and  _226
REMARK   82  A    between atoms: _225  and  _228
REMARK   83  A    between atoms: _230  and  _232
REMARK   84  A    between atoms: _232  and  _233
REMARK   85  A    between atoms: _232  and  _235
REMARK   86  A    between atoms: _235  and  _236
REMARK   87  A    between atoms: _239  and  _241
REMARK   88  A    between atoms: _241  and  _242
REMARK   89  A    between atoms: _241  and  _244
REMARK   90  A    between atoms: _244  and  _245
REMARK   91  A    between atoms: _248  and  _250
REMARK   92  A    between atoms: _250  and  _251
REMARK   93  A    between atoms: _250  and  _253
REMARK   94  A    between atoms: _253  and  _254
REMARK                            x       y       z     vdW  Elec       q    Type
REMARK                         _______ _______ _______ _____ _____    ______ ____
ROOT
ATOM      1  O   HOH     1      86.298  97.669 -45.027  0.00  0.00    +0.000 OA
ENDROOT
TORSDOF 0
REMARK  Name = ../refined-set-2016/4agm/4agm_pocket.pdb
REMARK  94 active torsions:
REMARK  status: ('A' for Active; 'I' for Inactive)
REMARK    1  A    between atoms: _1  and  _3
REMARK    2  A    between atoms: _3  and  _4
REMARK    3  A    between atoms: _3  and  _6
REMARK    4  A    between atoms: _6  and  _7
REMARK    5  A    between atoms: _12  and  _13
REMARK    6  A    between atoms: _15  and  _17
REMARK    7  A    between atoms: _17  and  _18
REMARK    8  A    between atoms: _17  and  _20
REMARK    9  A    between atoms: _20  and  _21
REMARK   10  A    between atoms: _27  and  _29
REMARK   11  A    between atoms: _29  and  _30
REMARK   12  A    between atoms: _29  and  _32
REMARK   13  A    between atoms: _32  and  _33
REMARK   14  A    between atoms: _33  and  _34
REMARK   15  A    between atoms: _34  and  _35
REMARK   16  A    between atoms: _44  and  _46
REMARK   17  A    between atoms: _46  and  _47
REMARK   18  A    between atoms: _46  and  _49
REMARK   19  A    between atoms: _49  and  _50
REMARK   20  A    between atoms: _50  and  _51
REMARK   21  A    between atoms: _56  and  _58
REMARK   22  A    between atoms: _58  and  _59
REMARK   23  A    between atoms: _58  and  _61
REMARK   24  A    between atoms: _61  and  _62
REMARK   25  A    between atoms: _65  and  _67
REMARK   26  A    between atoms: _67  and  _68
REMARK   27  A    between atoms: _67  and  _70
REMARK   28  A    between atoms: _70  and  _71
REMARK   29  A    between atoms: _81  and  _83
REMARK   30  A    between atoms: _83  and  _84
REMARK   31  A    between atoms: _83  and  _86
REMARK   32  A    between atoms: _89  and  _91
REMARK   33  A    between atoms: _91  and  _92
REMARK   34  A    between atoms: _91  and  _94
REMARK   35  A    between atoms: _94  and  _95
REMARK   36  A    between atoms: _98  and  _100
REMARK   37  A    between atoms: _100  and  _101
REMARK   38  A    between atoms: _100  and  _103
REMARK   39  A    between atoms: _103  and  _104
REMARK   40  A    between atoms: _106  and  _108
REMARK   41  A    between atoms: _108  and  _109
REMARK   42  A    between atoms: _108  and  _111
REMARK   43  A    between atoms: _111  and  _112
REMARK   44  A    between atoms: _116  and  _117
REMARK   45  A    between atoms: _123  and  _124
REMARK   46  A    between atoms: _130  and  _131
REMARK   47  A    between atoms: _136  and  _138
REMARK   48  A    between atoms: _138  and  _139
REMARK   49  A    between atoms: _141  and  _143
REMARK   50  A    between atoms: _143  and  _144
REMARK   51  A    between atoms: _143  and  _146
REMARK   52  A    between atoms: _146  and  _147
REMARK   53  A    between atoms: _150  and  _152
REMARK   54  A    between atoms: _152  and  _153
REMARK   55  A    between atoms: _152  and  _155
REMARK   56  A    between atoms: _159  and  _160
REMARK   57  A    between atoms: _165  and  _167
REMARK   58  A    between atoms: _167  and  _168
REMARK   59  A    between atoms: _167  and  _170
REMARK   60  A    between atoms: _172  and  _174
REMARK   61  A    between atoms: _174  and  _175
REMARK   62  A    between atoms: _174  and  _177
REMARK   63  A    between atoms: _177  and  _178
REMARK   64  A    between atoms: _178  and  _179
REMARK   65  A    between atoms: _183  and  _184
REMARK   66  A    between atoms: _190  and  _191
REMARK   67  A    between atoms: _196  and  _198
REMARK   68  A    between atoms: _198  and  _199
REMARK   69  A    between atoms: _198  and  _201
REMARK   70  A    between atoms: _201  and  _202
REMARK   71  A    between atoms: _202  and  _203
REMARK   72  A    between atoms: _206  and  _208
REMARK   73  A    between atoms: _208  and  _209
REMARK   74  A    between atoms: _208  and  _211
REMARK   75  A    between atoms: _211  and  _212
REMARK   76  A    between atoms: _214  and  _216
REMARK   77  A    between atoms: _216  and  _217
REMARK   78  A    between atoms: _216  and  _219
REMARK   79  A    between atoms: _219  and  _220
REMARK   80  A    between atoms: _223  and  _225
REMARK   81  A    between atoms: _225  and  _226
REMARK   82  A    between atoms: _225  and  _228
REMARK   83  A    between atoms: _230  and  _232
REMARK   84  A    between atoms: _232  and  _233
REMARK   85  A    between atoms: _232  and  _235
REMARK   86  A    between atoms: _235  and  _236
REMARK   87  A    between atoms: _239  and  _241
REMARK   88  A    between atoms: _241  and  _242
REMARK   89  A    between atoms: _241  and  _244
REMARK   90  A    between atoms: _244  and  _245
REMARK   91  A    between atoms: _248  and  _250
REMARK   92  A    between atoms: _250  and  _251
REMARK   93  A    between atoms: _250  and  _253
REMARK   94  A    between atoms: _253  and  _254
REMARK                            x       y       z     vdW  Elec       q    Type
REMARK                         _______ _______ _______ _____ _____    ______ ____
ROOT
ATOM      1  O   HOH     1      90.315  87.461 -40.911  0.00  0.00    +0.000 OA
ENDROOT
TORSDOF 0
REMARK  Name = ../refined-set-2016/4agm/4agm_pocket.pdb
REMARK  94 active torsions:
REMARK  status: ('A' for Active; 'I' for Inactive)
REMARK    1  A    between atoms: _1  and  _3
REMARK    2  A    between atoms: _3  and  _4
REMARK    3  A    between atoms: _3  and  _6
REMARK    4  A    between atoms: _6  and  _7
REMARK    5  A    between atoms: _12  and  _13
REMARK    6  A    between atoms: _15  and  _17
REMARK    7  A    between atoms: _17  and  _18
REMARK    8  A    between atoms: _17  and  _20
REMARK    9  A    between atoms: _20  and  _21
REMARK   10  A    between atoms: _27  and  _29
REMARK   11  A    between atoms: _29  and  _30
REMARK   12  A    between atoms: _29  and  _32
REMARK   13  A    between atoms: _32  and  _33
REMARK   14  A    between atoms: _33  and  _34
REMARK   15  A    between atoms: _34  and  _35
REMARK   16  A    between atoms: _44  and  _46
REMARK   17  A    between atoms: _46  and  _47
REMARK   18  A    between atoms: _46  and  _49
REMARK   19  A    between atoms: _49  and  _50
REMARK   20  A    between atoms: _50  and  _51
REMARK   21  A    between atoms: _56  and  _58
REMARK   22  A    between atoms: _58  and  _59
REMARK   23  A    between atoms: _58  and  _61
REMARK   24  A    between atoms: _61  and  _62
REMARK   25  A    between atoms: _65  and  _67
REMARK   26  A    between atoms: _67  and  _68
REMARK   27  A    between atoms: _67  and  _70
REMARK   28  A    between atoms: _70  and  _71
REMARK   29  A    between atoms: _81  and  _83
REMARK   30  A    between atoms: _83  and  _84
REMARK   31  A    between atoms: _83  and  _86
REMARK   32  A    between atoms: _89  and  _91
REMARK   33  A    between atoms: _91  and  _92
REMARK   34  A    between atoms: _91  and  _94
REMARK   35  A    between atoms: _94  and  _95
REMARK   36  A    between atoms: _98  and  _100
REMARK   37  A    between atoms: _100  and  _101
REMARK   38  A    between atoms: _100  and  _103
REMARK   39  A    between atoms: _103  and  _104
REMARK   40  A    between atoms: _106  and  _108
REMARK   41  A    between atoms: _108  and  _109
REMARK   42  A    between atoms: _108  and  _111
REMARK   43  A    between atoms: _111  and  _112
REMARK   44  A    between atoms: _116  and  _117
REMARK   45  A    between atoms: _123  and  _124
REMARK   46  A    between atoms: _130  and  _131
REMARK   47  A    between atoms: _136  and  _138
REMARK   48  A    between atoms: _138  and  _139
REMARK   49  A    between atoms: _141  and  _143
REMARK   50  A    between atoms: _143  and  _144
REMARK   51  A    between atoms: _143  and  _146
REMARK   52  A    between atoms: _146  and  _147
REMARK   53  A    between atoms: _150  and  _152
REMARK   54  A    between atoms: _152  and  _153
REMARK   55  A    between atoms: _152  and  _155
REMARK   56  A    between atoms: _159  and  _160
REMARK   57  A    between atoms: _165  and  _167
REMARK   58  A    between atoms: _167  and  _168
REMARK   59  A    between atoms: _167  and  _170
REMARK   60  A    between atoms: _172  and  _174
REMARK   61  A    between atoms: _174  and  _175
REMARK   62  A    between atoms: _174  and  _177
REMARK   63  A    between atoms: _177  and  _178
REMARK   64  A    between atoms: _178  and  _179
REMARK   65  A    between atoms: _183  and  _184
REMARK   66  A    between atoms: _190  and  _191
REMARK   67  A    between atoms: _196  and  _198
REMARK   68  A    between atoms: _198  and  _199
REMARK   69  A    between atoms: _198  and  _201
REMARK   70  A    between atoms: _201  and  _202
REMARK   71  A    between atoms: _202  and  _203
REMARK   72  A    between atoms: _206  and  _208
REMARK   73  A    between atoms: _208  and  _209
REMARK   74  A    between atoms: _208  and  _211
REMARK   75  A    between atoms: _211  and  _212
REMARK   76  A    between atoms: _214  and  _216
REMARK   77  A    between atoms: _216  and  _217
REMARK   78  A    between atoms: _216  and  _219
REMARK   79  A    between atoms: _219  and  _220
REMARK   80  A    between atoms: _223  and  _225
REMARK   81  A    between atoms: _225  and  _226
REMARK   82  A    between atoms: _225  and  _228
REMARK   83  A    between atoms: _230  and  _232
REMARK   84  A    between atoms: _232  and  _233
REMARK   85  A    between atoms: _232  and  _235
REMARK   86  A    between atoms: _235  and  _236
REMARK   87  A    between atoms: _239  and  _241
REMARK   88  A    between atoms: _241  and  _242
REMARK   89  A    between atoms: _241  and  _244
REMARK   90  A    between atoms: _244  and  _245
REMARK   91  A    between atoms: _248  and  _250
REMARK   92  A    between atoms: _250  and  _251
REMARK   93  A    between atoms: _250  and  _253
REMARK   94  A    between atoms: _253  and  _254
REMARK                            x       y       z     vdW  Elec       q    Type
REMARK                         _______ _______ _______ _____ _____    ______ ____
ROOT
ATOM      1  O   HOH     1      88.976  86.994 -47.725  0.00  0.00    +0.000 OA
ENDROOT
TORSDOF 0
REMARK  Name = ../refined-set-2016/4agm/4agm_pocket.pdb
REMARK  94 active torsions:
REMARK  status: ('A' for Active; 'I' for Inactive)
REMARK    1  A    between atoms: _1  and  _3
REMARK    2  A    between atoms: _3  and  _4
REMARK    3  A    between atoms: _3  and  _6
REMARK    4  A    between atoms: _6  and  _7
REMARK    5  A    between atoms: _12  and  _13
REMARK    6  A    between atoms: _15  and  _17
REMARK    7  A    between atoms: _17  and  _18
REMARK    8  A    between atoms: _17  and  _20
REMARK    9  A    between atoms: _20  and  _21
REMARK   10  A    between atoms: _27  and  _29
REMARK   11  A    between atoms: _29  and  _30
REMARK   12  A    between atoms: _29  and  _32
REMARK   13  A    between atoms: _32  and  _33
REMARK   14  A    between atoms: _33  and  _34
REMARK   15  A    between atoms: _34  and  _35
REMARK   16  A    between atoms: _44  and  _46
REMARK   17  A    between atoms: _46  and  _47
REMARK   18  A    between atoms: _46  and  _49
REMARK   19  A    between atoms: _49  and  _50
REMARK   20  A    between atoms: _50  and  _51
REMARK   21  A    between atoms: _56  and  _58
REMARK   22  A    between atoms: _58  and  _59
REMARK   23  A    between atoms: _58  and  _61
REMARK   24  A    between atoms: _61  and  _62
REMARK   25  A    between atoms: _65  and  _67
REMARK   26  A    between atoms: _67  and  _68
REMARK   27  A    between atoms: _67  and  _70
REMARK   28  A    between atoms: _70  and  _71
REMARK   29  A    between atoms: _81  and  _83
REMARK   30  A    between atoms: _83  and  _84
REMARK   31  A    between atoms: _83  and  _86
REMARK   32  A    between atoms: _89  and  _91
REMARK   33  A    between atoms: _91  and  _92
REMARK   34  A    between atoms: _91  and  _94
REMARK   35  A    between atoms: _94  and  _95
REMARK   36  A    between atoms: _98  and  _100
REMARK   37  A    between atoms: _100  and  _101
REMARK   38  A    between atoms: _100  and  _103
REMARK   39  A    between atoms: _103  and  _104
REMARK   40  A    between atoms: _106  and  _108
REMARK   41  A    between atoms: _108  and  _109
REMARK   42  A    between atoms: _108  and  _111
REMARK   43  A    between atoms: _111  and  _112
REMARK   44  A    between atoms: _116  and  _117
REMARK   45  A    between atoms: _123  and  _124
REMARK   46  A    between atoms: _130  and  _131
REMARK   47  A    between atoms: _136  and  _138
REMARK   48  A    between atoms: _138  and  _139
REMARK   49  A    between atoms: _141  and  _143
REMARK   50  A    between atoms: _143  and  _144
REMARK   51  A    between atoms: _143  and  _146
REMARK   52  A    between atoms: _146  and  _147
REMARK   53  A    between atoms: _150  and  _152
REMARK   54  A    between atoms: _152  and  _153
REMARK   55  A    between atoms: _152  and  _155
REMARK   56  A    between atoms: _159  and  _160
REMARK   57  A    between atoms: _165  and  _167
REMARK   58  A    between atoms: _167  and  _168
REMARK   59  A    between atoms: _167  and  _170
REMARK   60  A    between atoms: _172  and  _174
REMARK   61  A    between atoms: _174  and  _175
REMARK   62  A    between atoms: _174  and  _177
REMARK   63  A    between atoms: _177  and  _178
REMARK   64  A    between atoms: _178  and  _179
REMARK   65  A    between atoms: _183  and  _184
REMARK   66  A    between atoms: _190  and  _191
REMARK   67  A    between atoms: _196  and  _198
REMARK   68  A    between atoms: _198  and  _199
REMARK   69  A    between atoms: _198  and  _201
REMARK   70  A    between atoms: _201  and  _202
REMARK   71  A    between atoms: _202  and  _203
REMARK   72  A    between atoms: _206  and  _208
REMARK   73  A    between atoms: _208  and  _209
REMARK   74  A    between atoms: _208  and  _211
REMARK   75  A    between atoms: _211  and  _212
REMARK   76  A    between atoms: _214  and  _216
REMARK   77  A    between atoms: _216  and  _217
REMARK   78  A    between atoms: _216  and  _219
REMARK   79  A    between atoms: _219  and  _220
REMARK   80  A    between atoms: _223  and  _225
REMARK   81  A    between atoms: _225  and  _226
REMARK   82  A    between atoms: _225  and  _228
REMARK   83  A    between atoms: _230  and  _232
REMARK   84  A    between atoms: _232  and  _233
REMARK   85  A    between atoms: _232  and  _235
REMARK   86  A    between atoms: _235  and  _236
REMARK   87  A    between atoms: _239  and  _241
REMARK   88  A    between atoms: _241  and  _242
REMARK   89  A    between atoms: _241  and  _244
REMARK   90  A    between atoms: _244  and  _245
REMARK   91  A    between atoms: _248  and  _250
REMARK   92  A    between atoms: _250  and  _251
REMARK   93  A    between atoms: _250  and  _253
REMARK   94  A    between atoms: _253  and  _254
REMARK                            x       y       z     vdW  Elec       q    Type
REMARK                         _______ _______ _______ _____ _____    ______ ____
ROOT
ATOM      1  O   HOH     1      92.009  90.074 -41.375  0.00  0.00    +0.000 OA
ENDROOT
TORSDOF 0
REMARK  Name = ../refined-set-2016/4agm/4agm_pocket.pdb
REMARK  94 active torsions:
REMARK  status: ('A' for Active; 'I' for Inactive)
REMARK    1  A    between atoms: _1  and  _3
REMARK    2  A    between atoms: _3  and  _4
REMARK    3  A    between atoms: _3  and  _6
REMARK    4  A    between atoms: _6  and  _7
REMARK    5  A    between atoms: _12  and  _13
REMARK    6  A    between atoms: _15  and  _17
REMARK    7  A    between atoms: _17  and  _18
REMARK    8  A    between atoms: _17  and  _20
REMARK    9  A    between atoms: _20  and  _21
REMARK   10  A    between atoms: _27  and  _29
REMARK   11  A    between atoms: _29  and  _30
REMARK   12  A    between atoms: _29  and  _32
REMARK   13  A    between atoms: _32  and  _33
REMARK   14  A    between atoms: _33  and  _34
REMARK   15  A    between atoms: _34  and  _35
REMARK   16  A    between atoms: _44  and  _46
REMARK   17  A    between atoms: _46  and  _47
REMARK   18  A    between atoms: _46  and  _49
REMARK   19  A    between atoms: _49  and  _50
REMARK   20  A    between atoms: _50  and  _51
REMARK   21  A    between atoms: _56  and  _58
REMARK   22  A    between atoms: _58  and  _59
REMARK   23  A    between atoms: _58  and  _61
REMARK   24  A    between atoms: _61  and  _62
REMARK   25  A    between atoms: _65  and  _67
REMARK   26  A    between atoms: _67  and  _68
REMARK   27  A    between atoms: _67  and  _70
REMARK   28  A    between atoms: _70  and  _71
REMARK   29  A    between atoms: _81  and  _83
REMARK   30  A    between atoms: _83  and  _84
REMARK   31  A    between atoms: _83  and  _86
REMARK   32  A    between atoms: _89  and  _91
REMARK   33  A    between atoms: _91  and  _92
REMARK   34  A    between atoms: _91  and  _94
REMARK   35  A    between atoms: _94  and  _95
REMARK   36  A    between atoms: _98  and  _100
REMARK   37  A    between atoms: _100  and  _101
REMARK   38  A    between atoms: _100  and  _103
REMARK   39  A    between atoms: _103  and  _104
REMARK   40  A    between atoms: _106  and  _108
REMARK   41  A    between atoms: _108  and  _109
REMARK   42  A    between atoms: _108  and  _111
REMARK   43  A    between atoms: _111  and  _112
REMARK   44  A    between atoms: _116  and  _117
REMARK   45  A    between atoms: _123  and  _124
REMARK   46  A    between atoms: _130  and  _131
REMARK   47  A    between atoms: _136  and  _138
REMARK   48  A    between atoms: _138  and  _139
REMARK   49  A    between atoms: _141  and  _143
REMARK   50  A    between atoms: _143  and  _144
REMARK   51  A    between atoms: _143  and  _146
REMARK   52  A    between atoms: _146  and  _147
REMARK   53  A    between atoms: _150  and  _152
REMARK   54  A    between atoms: _152  and  _153
REMARK   55  A    between atoms: _152  and  _155
REMARK   56  A    between atoms: _159  and  _160
REMARK   57  A    between atoms: _165  and  _167
REMARK   58  A    between atoms: _167  and  _168
REMARK   59  A    between atoms: _167  and  _170
REMARK   60  A    between atoms: _172  and  _174
REMARK   61  A    between atoms: _174  and  _175
REMARK   62  A    between atoms: _174  and  _177
REMARK   63  A    between atoms: _177  and  _178
REMARK   64  A    between atoms: _178  and  _179
REMARK   65  A    between atoms: _183  and  _184
REMARK   66  A    between atoms: _190  and  _191
REMARK   67  A    between atoms: _196  and  _198
REMARK   68  A    between atoms: _198  and  _199
REMARK   69  A    between atoms: _198  and  _201
REMARK   70  A    between atoms: _201  and  _202
REMARK   71  A    between atoms: _202  and  _203
REMARK   72  A    between atoms: _206  and  _208
REMARK   73  A    between atoms: _208  and  _209
REMARK   74  A    between atoms: _208  and  _211
REMARK   75  A    between atoms: _211  and  _212
REMARK   76  A    between atoms: _214  and  _216
REMARK   77  A    between atoms: _216  and  _217
REMARK   78  A    between atoms: _216  and  _219
REMARK   79  A    between atoms: _219  and  _220
REMARK   80  A    between atoms: _223  and  _225
REMARK   81  A    between atoms: _225  and  _226
REMARK   82  A    between atoms: _225  and  _228
REMARK   83  A    between atoms: _230  and  _232
REMARK   84  A    between atoms: _232  and  _233
REMARK   85  A    between atoms: _232  and  _235
REMARK   86  A    between atoms: _235  and  _236
REMARK   87  A    between atoms: _239  and  _241
REMARK   88  A    between atoms: _241  and  _242
REMARK   89  A    between atoms: _241  and  _244
REMARK   90  A    between atoms: _244  and  _245
REMARK   91  A    between atoms: _248  and  _250
REMARK   92  A    between atoms: _250  and  _251
REMARK   93  A    between atoms: _250  and  _253
REMARK   94  A    between atoms: _253  and  _254
REMARK                            x       y       z     vdW  Elec       q    Type
REMARK                         _______ _______ _______ _____ _____    ______ ____
ROOT
ATOM      1  O   HOH     1      85.188  90.567 -40.363  0.00  0.00    +0.000 OA
ENDROOT
TORSDOF 0
REMARK  Name = ../refined-set-2016/4agm/4agm_pocket.pdb
REMARK  94 active torsions:
REMARK  status: ('A' for Active; 'I' for Inactive)
REMARK    1  A    between atoms: _1  and  _3
REMARK    2  A    between atoms: _3  and  _4
REMARK    3  A    between atoms: _3  and  _6
REMARK    4  A    between atoms: _6  and  _7
REMARK    5  A    between atoms: _12  and  _13
REMARK    6  A    between atoms: _15  and  _17
REMARK    7  A    between atoms: _17  and  _18
REMARK    8  A    between atoms: _17  and  _20
REMARK    9  A    between atoms: _20  and  _21
REMARK   10  A    between atoms: _27  and  _29
REMARK   11  A    between atoms: _29  and  _30
REMARK   12  A    between atoms: _29  and  _32
REMARK   13  A    between atoms: _32  and  _33
REMARK   14  A    between atoms: _33  and  _34
REMARK   15  A    between atoms: _34  and  _35
REMARK   16  A    between atoms: _44  and  _46
REMARK   17  A    between atoms: _46  and  _47
REMARK   18  A    between atoms: _46  and  _49
REMARK   19  A    between atoms: _49  and  _50
REMARK   20  A    between atoms: _50  and  _51
REMARK   21  A    between atoms: _56  and  _58
REMARK   22  A    between atoms: _58  and  _59
REMARK   23  A    between atoms: _58  and  _61
REMARK   24  A    between atoms: _61  and  _62
REMARK   25  A    between atoms: _65  and  _67
REMARK   26  A    between atoms: _67  and  _68
REMARK   27  A    between atoms: _67  and  _70
REMARK   28  A    between atoms: _70  and  _71
REMARK   29  A    between atoms: _81  and  _83
REMARK   30  A    between atoms: _83  and  _84
REMARK   31  A    between atoms: _83  and  _86
REMARK   32  A    between atoms: _89  and  _91
REMARK   33  A    between atoms: _91  and  _92
REMARK   34  A    between atoms: _91  and  _94
REMARK   35  A    between atoms: _94  and  _95
REMARK   36  A    between atoms: _98  and  _100
REMARK   37  A    between atoms: _100  and  _101
REMARK   38  A    between atoms: _100  and  _103
REMARK   39  A    between atoms: _103  and  _104
REMARK   40  A    between atoms: _106  and  _108
REMARK   41  A    between atoms: _108  and  _109
REMARK   42  A    between atoms: _108  and  _111
REMARK   43  A    between atoms: _111  and  _112
REMARK   44  A    between atoms: _116  and  _117
REMARK   45  A    between atoms: _123  and  _124
REMARK   46  A    between atoms: _130  and  _131
REMARK   47  A    between atoms: _136  and  _138
REMARK   48  A    between atoms: _138  and  _139
REMARK   49  A    between atoms: _141  and  _143
REMARK   50  A    between atoms: _143  and  _144
REMARK   51  A    between atoms: _143  and  _146
REMARK   52  A    between atoms: _146  and  _147
REMARK   53  A    between atoms: _150  and  _152
REMARK   54  A    between atoms: _152  and  _153
REMARK   55  A    between atoms: _152  and  _155
REMARK   56  A    between atoms: _159  and  _160
REMARK   57  A    between atoms: _165  and  _167
REMARK   58  A    between atoms: _167  and  _168
REMARK   59  A    between atoms: _167  and  _170
REMARK   60  A    between atoms: _172  and  _174
REMARK   61  A    between atoms: _174  and  _175
REMARK   62  A    between atoms: _174  and  _177
REMARK   63  A    between atoms: _177  and  _178
REMARK   64  A    between atoms: _178  and  _179
REMARK   65  A    between atoms: _183  and  _184
REMARK   66  A    between atoms: _190  and  _191
REMARK   67  A    between atoms: _196  and  _198
REMARK   68  A    between atoms: _198  and  _199
REMARK   69  A    between atoms: _198  and  _201
REMARK   70  A    between atoms: _201  and  _202
REMARK   71  A    between atoms: _202  and  _203
REMARK   72  A    between atoms: _206  and  _208
REMARK   73  A    between atoms: _208  and  _209
REMARK   74  A    between atoms: _208  and  _211
REMARK   75  A    between atoms: _211  and  _212
REMARK   76  A    between atoms: _214  and  _216
REMARK   77  A    between atoms: _216  and  _217
REMARK   78  A    between atoms: _216  and  _219
REMARK   79  A    between atoms: _219  and  _220
REMARK   80  A    between atoms: _223  and  _225
REMARK   81  A    between atoms: _225  and  _226
REMARK   82  A    between atoms: _225  and  _228
REMARK   83  A    between atoms: _230  and  _232
REMARK   84  A    between atoms: _232  and  _233
REMARK   85  A    between atoms: _232  and  _235
REMARK   86  A    between atoms: _235  and  _236
REMARK   87  A    between atoms: _239  and  _241
REMARK   88  A    between atoms: _241  and  _242
REMARK   89  A    between atoms: _241  and  _244
REMARK   90  A    between atoms: _244  and  _245
REMARK   91  A    between atoms: _248  and  _250
REMARK   92  A    between atoms: _250  and  _251
REMARK   93  A    between atoms: _250  and  _253
REMARK   94  A    between atoms: _253  and  _254
REMARK                            x       y       z     vdW  Elec       q    Type
REMARK                         _______ _______ _______ _____ _____    ______ ____
ROOT
ATOM      1  O   HOH     1      84.334  90.318 -43.900  0.00  0.00    +0.000 OA
ENDROOT
TORSDOF 0
REMARK  Name = ../refined-set-2016/4agm/4agm_pocket.pdb
REMARK  94 active torsions:
REMARK  status: ('A' for Active; 'I' for Inactive)
REMARK    1  A    between atoms: _1  and  _3
REMARK    2  A    between atoms: _3  and  _4
REMARK    3  A    between atoms: _3  and  _6
REMARK    4  A    between atoms: _6  and  _7
REMARK    5  A    between atoms: _12  and  _13
REMARK    6  A    between atoms: _15  and  _17
REMARK    7  A    between atoms: _17  and  _18
REMARK    8  A    between atoms: _17  and  _20
REMARK    9  A    between atoms: _20  and  _21
REMARK   10  A    between atoms: _27  and  _29
REMARK   11  A    between atoms: _29  and  _30
REMARK   12  A    between atoms: _29  and  _32
REMARK   13  A    between atoms: _32  and  _33
REMARK   14  A    between atoms: _33  and  _34
REMARK   15  A    between atoms: _34  and  _35
REMARK   16  A    between atoms: _44  and  _46
REMARK   17  A    between atoms: _46  and  _47
REMARK   18  A    between atoms: _46  and  _49
REMARK   19  A    between atoms: _49  and  _50
REMARK   20  A    between atoms: _50  and  _51
REMARK   21  A    between atoms: _56  and  _58
REMARK   22  A    between atoms: _58  and  _59
REMARK   23  A    between atoms: _58  and  _61
REMARK   24  A    between atoms: _61  and  _62
REMARK   25  A    between atoms: _65  and  _67
REMARK   26  A    between atoms: _67  and  _68
REMARK   27  A    between atoms: _67  and  _70
REMARK   28  A    between atoms: _70  and  _71
REMARK   29  A    between atoms: _81  and  _83
REMARK   30  A    between atoms: _83  and  _84
REMARK   31  A    between atoms: _83  and  _86
REMARK   32  A    between atoms: _89  and  _91
REMARK   33  A    between atoms: _91  and  _92
REMARK   34  A    between atoms: _91  and  _94
REMARK   35  A    between atoms: _94  and  _95
REMARK   36  A    between atoms: _98  and  _100
REMARK   37  A    between atoms: _100  and  _101
REMARK   38  A    between atoms: _100  and  _103
REMARK   39  A    between atoms: _103  and  _104
REMARK   40  A    between atoms: _106  and  _108
REMARK   41  A    between atoms: _108  and  _109
REMARK   42  A    between atoms: _108  and  _111
REMARK   43  A    between atoms: _111  and  _112
REMARK   44  A    between atoms: _116  and  _117
REMARK   45  A    between atoms: _123  and  _124
REMARK   46  A    between atoms: _130  and  _131
REMARK   47  A    between atoms: _136  and  _138
REMARK   48  A    between atoms: _138  and  _139
REMARK   49  A    between atoms: _141  and  _143
REMARK   50  A    between atoms: _143  and  _144
REMARK   51  A    between atoms: _143  and  _146
REMARK   52  A    between atoms: _146  and  _147
REMARK   53  A    between atoms: _150  and  _152
REMARK   54  A    between atoms: _152  and  _153
REMARK   55  A    between atoms: _152  and  _155
REMARK   56  A    between atoms: _159  and  _160
REMARK   57  A    between atoms: _165  and  _167
REMARK   58  A    between atoms: _167  and  _168
REMARK   59  A    between atoms: _167  and  _170
REMARK   60  A    between atoms: _172  and  _174
REMARK   61  A    between atoms: _174  and  _175
REMARK   62  A    between atoms: _174  and  _177
REMARK   63  A    between atoms: _177  and  _178
REMARK   64  A    between atoms: _178  and  _179
REMARK   65  A    between atoms: _183  and  _184
REMARK   66  A    between atoms: _190  and  _191
REMARK   67  A    between atoms: _196  and  _198
REMARK   68  A    between atoms: _198  and  _199
REMARK   69  A    between atoms: _198  and  _201
REMARK   70  A    between atoms: _201  and  _202
REMARK   71  A    between atoms: _202  and  _203
REMARK   72  A    between atoms: _206  and  _208
REMARK   73  A    between atoms: _208  and  _209
REMARK   74  A    between atoms: _208  and  _211
REMARK   75  A    between atoms: _211  and  _212
REMARK   76  A    between atoms: _214  and  _216
REMARK   77  A    between atoms: _216  and  _217
REMARK   78  A    between atoms: _216  and  _219
REMARK   79  A    between atoms: _219  and  _220
REMARK   80  A    between atoms: _223  and  _225
REMARK   81  A    between atoms: _225  and  _226
REMARK   82  A    between atoms: _225  and  _228
REMARK   83  A    between atoms: _230  and  _232
REMARK   84  A    between atoms: _232  and  _233
REMARK   85  A    between atoms: _232  and  _235
REMARK   86  A    between atoms: _235  and  _236
REMARK   87  A    between atoms: _239  and  _241
REMARK   88  A    between atoms: _241  and  _242
REMARK   89  A    between atoms: _241  and  _244
REMARK   90  A    between atoms: _244  and  _245
REMARK   91  A    between atoms: _248  and  _250
REMARK   92  A    between atoms: _250  and  _251
REMARK   93  A    between atoms: _250  and  _253
REMARK   94  A    between atoms: _253  and  _254
REMARK                            x       y       z     vdW  Elec       q    Type
REMARK                         _______ _______ _______ _____ _____    ______ ____
ROOT
ATOM      1  O   HOH     1      84.100  97.010 -44.105  0.00  0.00    +0.000 OA
ENDROOT
TORSDOF 0
REMARK  Name = ../refined-set-2016/4agm/4agm_pocket.pdb
REMARK  94 active torsions:
REMARK  status: ('A' for Active; 'I' for Inactive)
REMARK    1  A    between atoms: _1  and  _3
REMARK    2  A    between atoms: _3  and  _4
REMARK    3  A    between atoms: _3  and  _6
REMARK    4  A    between atoms: _6  and  _7
REMARK    5  A    between atoms: _12  and  _13
REMARK    6  A    between atoms: _15  and  _17
REMARK    7  A    between atoms: _17  and  _18
REMARK    8  A    between atoms: _17  and  _20
REMARK    9  A    between atoms: _20  and  _21
REMARK   10  A    between atoms: _27  and  _29
REMARK   11  A    between atoms: _29  and  _30
REMARK   12  A    between atoms: _29  and  _32
REMARK   13  A    between atoms: _32  and  _33
REMARK   14  A    between atoms: _33  and  _34
REMARK   15  A    between atoms: _34  and  _35
REMARK   16  A    between atoms: _44  and  _46
REMARK   17  A    between atoms: _46  and  _47
REMARK   18  A    between atoms: _46  and  _49
REMARK   19  A    between atoms: _49  and  _50
REMARK   20  A    between atoms: _50  and  _51
REMARK   21  A    between atoms: _56  and  _58
REMARK   22  A    between atoms: _58  and  _59
REMARK   23  A    between atoms: _58  and  _61
REMARK   24  A    between atoms: _61  and  _62
REMARK   25  A    between atoms: _65  and  _67
REMARK   26  A    between atoms: _67  and  _68
REMARK   27  A    between atoms: _67  and  _70
REMARK   28  A    between atoms: _70  and  _71
REMARK   29  A    between atoms: _81  and  _83
REMARK   30  A    between atoms: _83  and  _84
REMARK   31  A    between atoms: _83  and  _86
REMARK   32  A    between atoms: _89  and  _91
REMARK   33  A    between atoms: _91  and  _92
REMARK   34  A    between atoms: _91  and  _94
REMARK   35  A    between atoms: _94  and  _95
REMARK   36  A    between atoms: _98  and  _100
REMARK   37  A    between atoms: _100  and  _101
REMARK   38  A    between atoms: _100  and  _103
REMARK   39  A    between atoms: _103  and  _104
REMARK   40  A    between atoms: _106  and  _108
REMARK   41  A    between atoms: _108  and  _109
REMARK   42  A    between atoms: _108  and  _111
REMARK   43  A    between atoms: _111  and  _112
REMARK   44  A    between atoms: _116  and  _117
REMARK   45  A    between atoms: _123  and  _124
REMARK   46  A    between atoms: _130  and  _131
REMARK   47  A    between atoms: _136  and  _138
REMARK   48  A    between atoms: _138  and  _139
REMARK   49  A    between atoms: _141  and  _143
REMARK   50  A    between atoms: _143  and  _144
REMARK   51  A    between atoms: _143  and  _146
REMARK   52  A    between atoms: _146  and  _147
REMARK   53  A    between atoms: _150  and  _152
REMARK   54  A    between atoms: _152  and  _153
REMARK   55  A    between atoms: _152  and  _155
REMARK   56  A    between atoms: _159  and  _160
REMARK   57  A    between atoms: _165  and  _167
REMARK   58  A    between atoms: _167  and  _168
REMARK   59  A    between atoms: _167  and  _170
REMARK   60  A    between atoms: _172  and  _174
REMARK   61  A    between atoms: _174  and  _175
REMARK   62  A    between atoms: _174  and  _177
REMARK   63  A    between atoms: _177  and  _178
REMARK   64  A    between atoms: _178  and  _179
REMARK   65  A    between atoms: _183  and  _184
REMARK   66  A    between atoms: _190  and  _191
REMARK   67  A    between atoms: _196  and  _198
REMARK   68  A    between atoms: _198  and  _199
REMARK   69  A    between atoms: _198  and  _201
REMARK   70  A    between atoms: _201  and  _202
REMARK   71  A    between atoms: _202  and  _203
REMARK   72  A    between atoms: _206  and  _208
REMARK   73  A    between atoms: _208  and  _209
REMARK   74  A    between atoms: _208  and  _211
REMARK   75  A    between atoms: _211  and  _212
REMARK   76  A    between atoms: _214  and  _216
REMARK   77  A    between atoms: _216  and  _217
REMARK   78  A    between atoms: _216  and  _219
REMARK   79  A    between atoms: _219  and  _220
REMARK   80  A    between atoms: _223  and  _225
REMARK   81  A    between atoms: _225  and  _226
REMARK   82  A    between atoms: _225  and  _228
REMARK   83  A    between atoms: _230  and  _232
REMARK   84  A    between atoms: _232  and  _233
REMARK   85  A    between atoms: _232  and  _235
REMARK   86  A    between atoms: _235  and  _236
REMARK   87  A    between atoms: _239  and  _241
REMARK   88  A    between atoms: _241  and  _242
REMARK   89  A    between atoms: _241  and  _244
REMARK   90  A    between atoms: _244  and  _245
REMARK   91  A    between atoms: _248  and  _250
REMARK   92  A    between atoms: _250  and  _251
REMARK   93  A    between atoms: _250  and  _253
REMARK   94  A    between atoms: _253  and  _254
REMARK                            x       y       z     vdW  Elec       q    Type
REMARK                         _______ _______ _______ _____ _____    ______ ____
ROOT
ATOM      1  O   HOH     1      84.678  93.775 -38.017  0.00  0.00    +0.000 OA
ENDROOT
TORSDOF 0
REMARK  Name = ../refined-set-2016/4agm/4agm_pocket.pdb
REMARK  94 active torsions:
REMARK  status: ('A' for Active; 'I' for Inactive)
REMARK    1  A    between atoms: _1  and  _3
REMARK    2  A    between atoms: _3  and  _4
REMARK    3  A    between atoms: _3  and  _6
REMARK    4  A    between atoms: _6  and  _7
REMARK    5  A    between atoms: _12  and  _13
REMARK    6  A    between atoms: _15  and  _17
REMARK    7  A    between atoms: _17  and  _18
REMARK    8  A    between atoms: _17  and  _20
REMARK    9  A    between atoms: _20  and  _21
REMARK   10  A    between atoms: _27  and  _29
REMARK   11  A    between atoms: _29  and  _30
REMARK   12  A    between atoms: _29  and  _32
REMARK   13  A    between atoms: _32  and  _33
REMARK   14  A    between atoms: _33  and  _34
REMARK   15  A    between atoms: _34  and  _35
REMARK   16  A    between atoms: _44  and  _46
REMARK   17  A    between atoms: _46  and  _47
REMARK   18  A    between atoms: _46  and  _49
REMARK   19  A    between atoms: _49  and  _50
REMARK   20  A    between atoms: _50  and  _51
REMARK   21  A    between atoms: _56  and  _58
REMARK   22  A    between atoms: _58  and  _59
REMARK   23  A    between atoms: _58  and  _61
REMARK   24  A    between atoms: _61  and  _62
REMARK   25  A    between atoms: _65  and  _67
REMARK   26  A    between atoms: _67  and  _68
REMARK   27  A    between atoms: _67  and  _70
REMARK   28  A    between atoms: _70  and  _71
REMARK   29  A    between atoms: _81  and  _83
REMARK   30  A    between atoms: _83  and  _84
REMARK   31  A    between atoms: _83  and  _86
REMARK   32  A    between atoms: _89  and  _91
REMARK   33  A    between atoms: _91  and  _92
REMARK   34  A    between atoms: _91  and  _94
REMARK   35  A    between atoms: _94  and  _95
REMARK   36  A    between atoms: _98  and  _100
REMARK   37  A    between atoms: _100  and  _101
REMARK   38  A    between atoms: _100  and  _103
REMARK   39  A    between atoms: _103  and  _104
REMARK   40  A    between atoms: _106  and  _108
REMARK   41  A    between atoms: _108  and  _109
REMARK   42  A    between atoms: _108  and  _111
REMARK   43  A    between atoms: _111  and  _112
REMARK   44  A    between atoms: _116  and  _117
REMARK   45  A    between atoms: _123  and  _124
REMARK   46  A    between atoms: _130  and  _131
REMARK   47  A    between atoms: _136  and  _138
REMARK   48  A    between atoms: _138  and  _139
REMARK   49  A    between atoms: _141  and  _143
REMARK   50  A    between atoms: _143  and  _144
REMARK   51  A    between atoms: _143  and  _146
REMARK   52  A    between atoms: _146  and  _147
REMARK   53  A    between atoms: _150  and  _152
REMARK   54  A    between atoms: _152  and  _153
REMARK   55  A    between atoms: _152  and  _155
REMARK   56  A    between atoms: _159  and  _160
REMARK   57  A    between atoms: _165  and  _167
REMARK   58  A    between atoms: _167  and  _168
REMARK   59  A    between atoms: _167  and  _170
REMARK   60  A    between atoms: _172  and  _174
REMARK   61  A    between atoms: _174  and  _175
REMARK   62  A    between atoms: _174  and  _177
REMARK   63  A    between atoms: _177  and  _178
REMARK   64  A    between atoms: _178  and  _179
REMARK   65  A    between atoms: _183  and  _184
REMARK   66  A    between atoms: _190  and  _191
REMARK   67  A    between atoms: _196  and  _198
REMARK   68  A    between atoms: _198  and  _199
REMARK   69  A    between atoms: _198  and  _201
REMARK   70  A    between atoms: _201  and  _202
REMARK   71  A    between atoms: _202  and  _203
REMARK   72  A    between atoms: _206  and  _208
REMARK   73  A    between atoms: _208  and  _209
REMARK   74  A    between atoms: _208  and  _211
REMARK   75  A    between atoms: _211  and  _212
REMARK   76  A    between atoms: _214  and  _216
REMARK   77  A    between atoms: _216  and  _217
REMARK   78  A    between atoms: _216  and  _219
REMARK   79  A    between atoms: _219  and  _220
REMARK   80  A    between atoms: _223  and  _225
REMARK   81  A    between atoms: _225  and  _226
REMARK   82  A    between atoms: _225  and  _228
REMARK   83  A    between atoms: _230  and  _232
REMARK   84  A    between atoms: _232  and  _233
REMARK   85  A    between atoms: _232  and  _235
REMARK   86  A    between atoms: _235  and  _236
REMARK   87  A    between atoms: _239  and  _241
REMARK   88  A    between atoms: _241  and  _242
REMARK   89  A    between atoms: _241  and  _244
REMARK   90  A    between atoms: _244  and  _245
REMARK   91  A    between atoms: _248  and  _250
REMARK   92  A    between atoms: _250  and  _251
REMARK   93  A    between atoms: _250  and  _253
REMARK   94  A    between atoms: _253  and  _254
REMARK                            x       y       z     vdW  Elec       q    Type
REMARK                         _______ _______ _______ _____ _____    ______ ____
ROOT
ATOM      1  O   HOH     1      83.740  98.960 -42.357  0.00  0.00    +0.000 OA
ENDROOT
TORSDOF 0
REMARK  Name = ../refined-set-2016/4agm/4agm_pocket.pdb
REMARK  94 active torsions:
REMARK  status: ('A' for Active; 'I' for Inactive)
REMARK    1  A    between atoms: _1  and  _3
REMARK    2  A    between atoms: _3  and  _4
REMARK    3  A    between atoms: _3  and  _6
REMARK    4  A    between atoms: _6  and  _7
REMARK    5  A    between atoms: _12  and  _13
REMARK    6  A    between atoms: _15  and  _17
REMARK    7  A    between atoms: _17  and  _18
REMARK    8  A    between atoms: _17  and  _20
REMARK    9  A    between atoms: _20  and  _21
REMARK   10  A    between atoms: _27  and  _29
REMARK   11  A    between atoms: _29  and  _30
REMARK   12  A    between atoms: _29  and  _32
REMARK   13  A    between atoms: _32  and  _33
REMARK   14  A    between atoms: _33  and  _34
REMARK   15  A    between atoms: _34  and  _35
REMARK   16  A    between atoms: _44  and  _46
REMARK   17  A    between atoms: _46  and  _47
REMARK   18  A    between atoms: _46  and  _49
REMARK   19  A    between atoms: _49  and  _50
REMARK   20  A    between atoms: _50  and  _51
REMARK   21  A    between atoms: _56  and  _58
REMARK   22  A    between atoms: _58  and  _59
REMARK   23  A    between atoms: _58  and  _61
REMARK   24  A    between atoms: _61  and  _62
REMARK   25  A    between atoms: _65  and  _67
REMARK   26  A    between atoms: _67  and  _68
REMARK   27  A    between atoms: _67  and  _70
REMARK   28  A    between atoms: _70  and  _71
REMARK   29  A    between atoms: _81  and  _83
REMARK   30  A    between atoms: _83  and  _84
REMARK   31  A    between atoms: _83  and  _86
REMARK   32  A    between atoms: _89  and  _91
REMARK   33  A    between atoms: _91  and  _92
REMARK   34  A    between atoms: _91  and  _94
REMARK   35  A    between atoms: _94  and  _95
REMARK   36  A    between atoms: _98  and  _100
REMARK   37  A    between atoms: _100  and  _101
REMARK   38  A    between atoms: _100  and  _103
REMARK   39  A    between atoms: _103  and  _104
REMARK   40  A    between atoms: _106  and  _108
REMARK   41  A    between atoms: _108  and  _109
REMARK   42  A    between atoms: _108  and  _111
REMARK   43  A    between atoms: _111  and  _112
REMARK   44  A    between atoms: _116  and  _117
REMARK   45  A    between atoms: _123  and  _124
REMARK   46  A    between atoms: _130  and  _131
REMARK   47  A    between atoms: _136  and  _138
REMARK   48  A    between atoms: _138  and  _139
REMARK   49  A    between atoms: _141  and  _143
REMARK   50  A    between atoms: _143  and  _144
REMARK   51  A    between atoms: _143  and  _146
REMARK   52  A    between atoms: _146  and  _147
REMARK   53  A    between atoms: _150  and  _152
REMARK   54  A    between atoms: _152  and  _153
REMARK   55  A    between atoms: _152  and  _155
REMARK   56  A    between atoms: _159  and  _160
REMARK   57  A    between atoms: _165  and  _167
REMARK   58  A    between atoms: _167  and  _168
REMARK   59  A    between atoms: _167  and  _170
REMARK   60  A    between atoms: _172  and  _174
REMARK   61  A    between atoms: _174  and  _175
REMARK   62  A    between atoms: _174  and  _177
REMARK   63  A    between atoms: _177  and  _178
REMARK   64  A    between atoms: _178  and  _179
REMARK   65  A    between atoms: _183  and  _184
REMARK   66  A    between atoms: _190  and  _191
REMARK   67  A    between atoms: _196  and  _198
REMARK   68  A    between atoms: _198  and  _199
REMARK   69  A    between atoms: _198  and  _201
REMARK   70  A    between atoms: _201  and  _202
REMARK   71  A    between atoms: _202  and  _203
REMARK   72  A    between atoms: _206  and  _208
REMARK   73  A    between atoms: _208  and  _209
REMARK   74  A    between atoms: _208  and  _211
REMARK   75  A    between atoms: _211  and  _212
REMARK   76  A    between atoms: _214  and  _216
REMARK   77  A    between atoms: _216  and  _217
REMARK   78  A    between atoms: _216  and  _219
REMARK   79  A    between atoms: _219  and  _220
REMARK   80  A    between atoms: _223  and  _225
REMARK   81  A    between atoms: _225  and  _226
REMARK   82  A    between atoms: _225  and  _228
REMARK   83  A    between atoms: _230  and  _232
REMARK   84  A    between atoms: _232  and  _233
REMARK   85  A    between atoms: _232  and  _235
REMARK   86  A    between atoms: _235  and  _236
REMARK   87  A    between atoms: _239  and  _241
REMARK   88  A    between atoms: _241  and  _242
REMARK   89  A    between atoms: _241  and  _244
REMARK   90  A    between atoms: _244  and  _245
REMARK   91  A    between atoms: _248  and  _250
REMARK   92  A    between atoms: _250  and  _251
REMARK   93  A    between atoms: _250  and  _253
REMARK   94  A    between atoms: _253  and  _254
REMARK                            x       y       z     vdW  Elec       q    Type
REMARK                         _______ _______ _______ _____ _____    ______ ____
ROOT
ATOM      1  O   HOH     1      86.950  99.412 -42.549  0.00  0.00    +0.000 OA
ENDROOT
TORSDOF 0
REMARK  Name = ../refined-set-2016/4agm/4agm_pocket.pdb
REMARK  94 active torsions:
REMARK  status: ('A' for Active; 'I' for Inactive)
REMARK    1  A    between atoms: _1  and  _3
REMARK    2  A    between atoms: _3  and  _4
REMARK    3  A    between atoms: _3  and  _6
REMARK    4  A    between atoms: _6  and  _7
REMARK    5  A    between atoms: _12  and  _13
REMARK    6  A    between atoms: _15  and  _17
REMARK    7  A    between atoms: _17  and  _18
REMARK    8  A    between atoms: _17  and  _20
REMARK    9  A    between atoms: _20  and  _21
REMARK   10  A    between atoms: _27  and  _29
REMARK   11  A    between atoms: _29  and  _30
REMARK   12  A    between atoms: _29  and  _32
REMARK   13  A    between atoms: _32  and  _33
REMARK   14  A    between atoms: _33  and  _34
REMARK   15  A    between atoms: _34  and  _35
REMARK   16  A    between atoms: _44  and  _46
REMARK   17  A    between atoms: _46  and  _47
REMARK   18  A    between atoms: _46  and  _49
REMARK   19  A    between atoms: _49  and  _50
REMARK   20  A    between atoms: _50  and  _51
REMARK   21  A    between atoms: _56  and  _58
REMARK   22  A    between atoms: _58  and  _59
REMARK   23  A    between atoms: _58  and  _61
REMARK   24  A    between atoms: _61  and  _62
REMARK   25  A    between atoms: _65  and  _67
REMARK   26  A    between atoms: _67  and  _68
REMARK   27  A    between atoms: _67  and  _70
REMARK   28  A    between atoms: _70  and  _71
REMARK   29  A    between atoms: _81  and  _83
REMARK   30  A    between atoms: _83  and  _84
REMARK   31  A    between atoms: _83  and  _86
REMARK   32  A    between atoms: _89  and  _91
REMARK   33  A    between atoms: _91  and  _92
REMARK   34  A    between atoms: _91  and  _94
REMARK   35  A    between atoms: _94  and  _95
REMARK   36  A    between atoms: _98  and  _100
REMARK   37  A    between atoms: _100  and  _101
REMARK   38  A    between atoms: _100  and  _103
REMARK   39  A    between atoms: _103  and  _104
REMARK   40  A    between atoms: _106  and  _108
REMARK   41  A    between atoms: _108  and  _109
REMARK   42  A    between atoms: _108  and  _111
REMARK   43  A    between atoms: _111  and  _112
REMARK   44  A    between atoms: _116  and  _117
REMARK   45  A    between atoms: _123  and  _124
REMARK   46  A    between atoms: _130  and  _131
REMARK   47  A    between atoms: _136  and  _138
REMARK   48  A    between atoms: _138  and  _139
REMARK   49  A    between atoms: _141  and  _143
REMARK   50  A    between atoms: _143  and  _144
REMARK   51  A    between atoms: _143  and  _146
REMARK   52  A    between atoms: _146  and  _147
REMARK   53  A    between atoms: _150  and  _152
REMARK   54  A    between atoms: _152  and  _153
REMARK   55  A    between atoms: _152  and  _155
REMARK   56  A    between atoms: _159  and  _160
REMARK   57  A    between atoms: _165  and  _167
REMARK   58  A    between atoms: _167  and  _168
REMARK   59  A    between atoms: _167  and  _170
REMARK   60  A    between atoms: _172  and  _174
REMARK   61  A    between atoms: _174  and  _175
REMARK   62  A    between atoms: _174  and  _177
REMARK   63  A    between atoms: _177  and  _178
REMARK   64  A    between atoms: _178  and  _179
REMARK   65  A    between atoms: _183  and  _184
REMARK   66  A    between atoms: _190  and  _191
REMARK   67  A    between atoms: _196  and  _198
REMARK   68  A    between atoms: _198  and  _199
REMARK   69  A    between atoms: _198  and  _201
REMARK   70  A    between atoms: _201  and  _202
REMARK   71  A    between atoms: _202  and  _203
REMARK   72  A    between atoms: _206  and  _208
REMARK   73  A    between atoms: _208  and  _209
REMARK   74  A    between atoms: _208  and  _211
REMARK   75  A    between atoms: _211  and  _212
REMARK   76  A    between atoms: _214  and  _216
REMARK   77  A    between atoms: _216  and  _217
REMARK   78  A    between atoms: _216  and  _219
REMARK   79  A    between atoms: _219  and  _220
REMARK   80  A    between atoms: _223  and  _225
REMARK   81  A    between atoms: _225  and  _226
REMARK   82  A    between atoms: _225  and  _228
REMARK   83  A    between atoms: _230  and  _232
REMARK   84  A    between atoms: _232  and  _233
REMARK   85  A    between atoms: _232  and  _235
REMARK   86  A    between atoms: _235  and  _236
REMARK   87  A    between atoms: _239  and  _241
REMARK   88  A    between atoms: _241  and  _242
REMARK   89  A    between atoms: _241  and  _244
REMARK   90  A    between atoms: _244  and  _245
REMARK   91  A    between atoms: _248  and  _250
REMARK   92  A    between atoms: _250  and  _251
REMARK   93  A    between atoms: _250  and  _253
REMARK   94  A    between atoms: _253  and  _254
REMARK                            x       y       z     vdW  Elec       q    Type
REMARK                         _______ _______ _______ _____ _____    ______ ____
ROOT
ATOM      1  O   HOH     1      90.480 101.158 -40.453  0.00  0.00    +0.000 OA
ENDROOT
TORSDOF 0
REMARK  Name = ../refined-set-2016/4agm/4agm_pocket.pdb
REMARK  94 active torsions:
REMARK  status: ('A' for Active; 'I' for Inactive)
REMARK    1  A    between atoms: _1  and  _3
REMARK    2  A    between atoms: _3  and  _4
REMARK    3  A    between atoms: _3  and  _6
REMARK    4  A    between atoms: _6  and  _7
REMARK    5  A    between atoms: _12  and  _13
REMARK    6  A    between atoms: _15  and  _17
REMARK    7  A    between atoms: _17  and  _18
REMARK    8  A    between atoms: _17  and  _20
REMARK    9  A    between atoms: _20  and  _21
REMARK   10  A    between atoms: _27  and  _29
REMARK   11  A    between atoms: _29  and  _30
REMARK   12  A    between atoms: _29  and  _32
REMARK   13  A    between atoms: _32  and  _33
REMARK   14  A    between atoms: _33  and  _34
REMARK   15  A    between atoms: _34  and  _35
REMARK   16  A    between atoms: _44  and  _46
REMARK   17  A    between atoms: _46  and  _47
REMARK   18  A    between atoms: _46  and  _49
REMARK   19  A    between atoms: _49  and  _50
REMARK   20  A    between atoms: _50  and  _51
REMARK   21  A    between atoms: _56  and  _58
REMARK   22  A    between atoms: _58  and  _59
REMARK   23  A    between atoms: _58  and  _61
REMARK   24  A    between atoms: _61  and  _62
REMARK   25  A    between atoms: _65  and  _67
REMARK   26  A    between atoms: _67  and  _68
REMARK   27  A    between atoms: _67  and  _70
REMARK   28  A    between atoms: _70  and  _71
REMARK   29  A    between atoms: _81  and  _83
REMARK   30  A    between atoms: _83  and  _84
REMARK   31  A    between atoms: _83  and  _86
REMARK   32  A    between atoms: _89  and  _91
REMARK   33  A    between atoms: _91  and  _92
REMARK   34  A    between atoms: _91  and  _94
REMARK   35  A    between atoms: _94  and  _95
REMARK   36  A    between atoms: _98  and  _100
REMARK   37  A    between atoms: _100  and  _101
REMARK   38  A    between atoms: _100  and  _103
REMARK   39  A    between atoms: _103  and  _104
REMARK   40  A    between atoms: _106  and  _108
REMARK   41  A    between atoms: _108  and  _109
REMARK   42  A    between atoms: _108  and  _111
REMARK   43  A    between atoms: _111  and  _112
REMARK   44  A    between atoms: _116  and  _117
REMARK   45  A    between atoms: _123  and  _124
REMARK   46  A    between atoms: _130  and  _131
REMARK   47  A    between atoms: _136  and  _138
REMARK   48  A    between atoms: _138  and  _139
REMARK   49  A    between atoms: _141  and  _143
REMARK   50  A    between atoms: _143  and  _144
REMARK   51  A    between atoms: _143  and  _146
REMARK   52  A    between atoms: _146  and  _147
REMARK   53  A    between atoms: _150  and  _152
REMARK   54  A    between atoms: _152  and  _153
REMARK   55  A    between atoms: _152  and  _155
REMARK   56  A    between atoms: _159  and  _160
REMARK   57  A    between atoms: _165  and  _167
REMARK   58  A    between atoms: _167  and  _168
REMARK   59  A    between atoms: _167  and  _170
REMARK   60  A    between atoms: _172  and  _174
REMARK   61  A    between atoms: _174  and  _175
REMARK   62  A    between atoms: _174  and  _177
REMARK   63  A    between atoms: _177  and  _178
REMARK   64  A    between atoms: _178  and  _179
REMARK   65  A    between atoms: _183  and  _184
REMARK   66  A    between atoms: _190  and  _191
REMARK   67  A    between atoms: _196  and  _198
REMARK   68  A    between atoms: _198  and  _199
REMARK   69  A    between atoms: _198  and  _201
REMARK   70  A    between atoms: _201  and  _202
REMARK   71  A    between atoms: _202  and  _203
REMARK   72  A    between atoms: _206  and  _208
REMARK   73  A    between atoms: _208  and  _209
REMARK   74  A    between atoms: _208  and  _211
REMARK   75  A    between atoms: _211  and  _212
REMARK   76  A    between atoms: _214  and  _216
REMARK   77  A    between atoms: _216  and  _217
REMARK   78  A    between atoms: _216  and  _219
REMARK   79  A    between atoms: _219  and  _220
REMARK   80  A    between atoms: _223  and  _225
REMARK   81  A    between atoms: _225  and  _226
REMARK   82  A    between atoms: _225  and  _228
REMARK   83  A    between atoms: _230  and  _232
REMARK   84  A    between atoms: _232  and  _233
REMARK   85  A    between atoms: _232  and  _235
REMARK   86  A    between atoms: _235  and  _236
REMARK   87  A    between atoms: _239  and  _241
REMARK   88  A    between atoms: _241  and  _242
REMARK   89  A    between atoms: _241  and  _244
REMARK   90  A    between atoms: _244  and  _245
REMARK   91  A    between atoms: _248  and  _250
REMARK   92  A    between atoms: _250  and  _251
REMARK   93  A    between atoms: _250  and  _253
REMARK   94  A    between atoms: _253  and  _254
REMARK                            x       y       z     vdW  Elec       q    Type
REMARK                         _______ _______ _______ _____ _____    ______ ____
ROOT
ATOM      1  O   HOH     1      84.163 102.859 -40.379  0.00  0.00    +0.000 OA
ENDROOT
TORSDOF 0
REMARK  Name = ../refined-set-2016/4agm/4agm_pocket.pdb
REMARK  94 active torsions:
REMARK  status: ('A' for Active; 'I' for Inactive)
REMARK    1  A    between atoms: _1  and  _3
REMARK    2  A    between atoms: _3  and  _4
REMARK    3  A    between atoms: _3  and  _6
REMARK    4  A    between atoms: _6  and  _7
REMARK    5  A    between atoms: _12  and  _13
REMARK    6  A    between atoms: _15  and  _17
REMARK    7  A    between atoms: _17  and  _18
REMARK    8  A    between atoms: _17  and  _20
REMARK    9  A    between atoms: _20  and  _21
REMARK   10  A    between atoms: _27  and  _29
REMARK   11  A    between atoms: _29  and  _30
REMARK   12  A    between atoms: _29  and  _32
REMARK   13  A    between atoms: _32  and  _33
REMARK   14  A    between atoms: _33  and  _34
REMARK   15  A    between atoms: _34  and  _35
REMARK   16  A    between atoms: _44  and  _46
REMARK   17  A    between atoms: _46  and  _47
REMARK   18  A    between atoms: _46  and  _49
REMARK   19  A    between atoms: _49  and  _50
REMARK   20  A    between atoms: _50  and  _51
REMARK   21  A    between atoms: _56  and  _58
REMARK   22  A    between atoms: _58  and  _59
REMARK   23  A    between atoms: _58  and  _61
REMARK   24  A    between atoms: _61  and  _62
REMARK   25  A    between atoms: _65  and  _67
REMARK   26  A    between atoms: _67  and  _68
REMARK   27  A    between atoms: _67  and  _70
REMARK   28  A    between atoms: _70  and  _71
REMARK   29  A    between atoms: _81  and  _83
REMARK   30  A    between atoms: _83  and  _84
REMARK   31  A    between atoms: _83  and  _86
REMARK   32  A    between atoms: _89  and  _91
REMARK   33  A    between atoms: _91  and  _92
REMARK   34  A    between atoms: _91  and  _94
REMARK   35  A    between atoms: _94  and  _95
REMARK   36  A    between atoms: _98  and  _100
REMARK   37  A    between atoms: _100  and  _101
REMARK   38  A    between atoms: _100  and  _103
REMARK   39  A    between atoms: _103  and  _104
REMARK   40  A    between atoms: _106  and  _108
REMARK   41  A    between atoms: _108  and  _109
REMARK   42  A    between atoms: _108  and  _111
REMARK   43  A    between atoms: _111  and  _112
REMARK   44  A    between atoms: _116  and  _117
REMARK   45  A    between atoms: _123  and  _124
REMARK   46  A    between atoms: _130  and  _131
REMARK   47  A    between atoms: _136  and  _138
REMARK   48  A    between atoms: _138  and  _139
REMARK   49  A    between atoms: _141  and  _143
REMARK   50  A    between atoms: _143  and  _144
REMARK   51  A    between atoms: _143  and  _146
REMARK   52  A    between atoms: _146  and  _147
REMARK   53  A    between atoms: _150  and  _152
REMARK   54  A    between atoms: _152  and  _153
REMARK   55  A    between atoms: _152  and  _155
REMARK   56  A    between atoms: _159  and  _160
REMARK   57  A    between atoms: _165  and  _167
REMARK   58  A    between atoms: _167  and  _168
REMARK   59  A    between atoms: _167  and  _170
REMARK   60  A    between atoms: _172  and  _174
REMARK   61  A    between atoms: _174  and  _175
REMARK   62  A    between atoms: _174  and  _177
REMARK   63  A    between atoms: _177  and  _178
REMARK   64  A    between atoms: _178  and  _179
REMARK   65  A    between atoms: _183  and  _184
REMARK   66  A    between atoms: _190  and  _191
REMARK   67  A    between atoms: _196  and  _198
REMARK   68  A    between atoms: _198  and  _199
REMARK   69  A    between atoms: _198  and  _201
REMARK   70  A    between atoms: _201  and  _202
REMARK   71  A    between atoms: _202  and  _203
REMARK   72  A    between atoms: _206  and  _208
REMARK   73  A    between atoms: _208  and  _209
REMARK   74  A    between atoms: _208  and  _211
REMARK   75  A    between atoms: _211  and  _212
REMARK   76  A    between atoms: _214  and  _216
REMARK   77  A    between atoms: _216  and  _217
REMARK   78  A    between atoms: _216  and  _219
REMARK   79  A    between atoms: _219  and  _220
REMARK   80  A    between atoms: _223  and  _225
REMARK   81  A    between atoms: _225  and  _226
REMARK   82  A    between atoms: _225  and  _228
REMARK   83  A    between atoms: _230  and  _232
REMARK   84  A    between atoms: _232  and  _233
REMARK   85  A    between atoms: _232  and  _235
REMARK   86  A    between atoms: _235  and  _236
REMARK   87  A    between atoms: _239  and  _241
REMARK   88  A    between atoms: _241  and  _242
REMARK   89  A    between atoms: _241  and  _244
REMARK   90  A    between atoms: _244  and  _245
REMARK   91  A    between atoms: _248  and  _250
REMARK   92  A    between atoms: _250  and  _251
REMARK   93  A    between atoms: _250  and  _253
REMARK   94  A    between atoms: _253  and  _254
REMARK                            x       y       z     vdW  Elec       q    Type
REMARK                         _______ _______ _______ _____ _____    ______ ____
ROOT
ATOM      1  O   HOH     1      88.093 102.283 -41.351  0.00  0.00    +0.000 OA
ENDROOT
TORSDOF 0
REMARK  Name = ../refined-set-2016/4agm/4agm_pocket.pdb
REMARK  94 active torsions:
REMARK  status: ('A' for Active; 'I' for Inactive)
REMARK    1  A    between atoms: _1  and  _3
REMARK    2  A    between atoms: _3  and  _4
REMARK    3  A    between atoms: _3  and  _6
REMARK    4  A    between atoms: _6  and  _7
REMARK    5  A    between atoms: _12  and  _13
REMARK    6  A    between atoms: _15  and  _17
REMARK    7  A    between atoms: _17  and  _18
REMARK    8  A    between atoms: _17  and  _20
REMARK    9  A    between atoms: _20  and  _21
REMARK   10  A    between atoms: _27  and  _29
REMARK   11  A    between atoms: _29  and  _30
REMARK   12  A    between atoms: _29  and  _32
REMARK   13  A    between atoms: _32  and  _33
REMARK   14  A    between atoms: _33  and  _34
REMARK   15  A    between atoms: _34  and  _35
REMARK   16  A    between atoms: _44  and  _46
REMARK   17  A    between atoms: _46  and  _47
REMARK   18  A    between atoms: _46  and  _49
REMARK   19  A    between atoms: _49  and  _50
REMARK   20  A    between atoms: _50  and  _51
REMARK   21  A    between atoms: _56  and  _58
REMARK   22  A    between atoms: _58  and  _59
REMARK   23  A    between atoms: _58  and  _61
REMARK   24  A    between atoms: _61  and  _62
REMARK   25  A    between atoms: _65  and  _67
REMARK   26  A    between atoms: _67  and  _68
REMARK   27  A    between atoms: _67  and  _70
REMARK   28  A    between atoms: _70  and  _71
REMARK   29  A    between atoms: _81  and  _83
REMARK   30  A    between atoms: _83  and  _84
REMARK   31  A    between atoms: _83  and  _86
REMARK   32  A    between atoms: _89  and  _91
REMARK   33  A    between atoms: _91  and  _92
REMARK   34  A    between atoms: _91  and  _94
REMARK   35  A    between atoms: _94  and  _95
REMARK   36  A    between atoms: _98  and  _100
REMARK   37  A    between atoms: _100  and  _101
REMARK   38  A    between atoms: _100  and  _103
REMARK   39  A    between atoms: _103  and  _104
REMARK   40  A    between atoms: _106  and  _108
REMARK   41  A    between atoms: _108  and  _109
REMARK   42  A    between atoms: _108  and  _111
REMARK   43  A    between atoms: _111  and  _112
REMARK   44  A    between atoms: _116  and  _117
REMARK   45  A    between atoms: _123  and  _124
REMARK   46  A    between atoms: _130  and  _131
REMARK   47  A    between atoms: _136  and  _138
REMARK   48  A    between atoms: _138  and  _139
REMARK   49  A    between atoms: _141  and  _143
REMARK   50  A    between atoms: _143  and  _144
REMARK   51  A    between atoms: _143  and  _146
REMARK   52  A    between atoms: _146  and  _147
REMARK   53  A    between atoms: _150  and  _152
REMARK   54  A    between atoms: _152  and  _153
REMARK   55  A    between atoms: _152  and  _155
REMARK   56  A    between atoms: _159  and  _160
REMARK   57  A    between atoms: _165  and  _167
REMARK   58  A    between atoms: _167  and  _168
REMARK   59  A    between atoms: _167  and  _170
REMARK   60  A    between atoms: _172  and  _174
REMARK   61  A    between atoms: _174  and  _175
REMARK   62  A    between atoms: _174  and  _177
REMARK   63  A    between atoms: _177  and  _178
REMARK   64  A    between atoms: _178  and  _179
REMARK   65  A    between atoms: _183  and  _184
REMARK   66  A    between atoms: _190  and  _191
REMARK   67  A    between atoms: _196  and  _198
REMARK   68  A    between atoms: _198  and  _199
REMARK   69  A    between atoms: _198  and  _201
REMARK   70  A    between atoms: _201  and  _202
REMARK   71  A    between atoms: _202  and  _203
REMARK   72  A    between atoms: _206  and  _208
REMARK   73  A    between atoms: _208  and  _209
REMARK   74  A    between atoms: _208  and  _211
REMARK   75  A    between atoms: _211  and  _212
REMARK   76  A    between atoms: _214  and  _216
REMARK   77  A    between atoms: _216  and  _217
REMARK   78  A    between atoms: _216  and  _219
REMARK   79  A    between atoms: _219  and  _220
REMARK   80  A    between atoms: _223  and  _225
REMARK   81  A    between atoms: _225  and  _226
REMARK   82  A    between atoms: _225  and  _228
REMARK   83  A    between atoms: _230  and  _232
REMARK   84  A    between atoms: _232  and  _233
REMARK   85  A    between atoms: _232  and  _235
REMARK   86  A    between atoms: _235  and  _236
REMARK   87  A    between atoms: _239  and  _241
REMARK   88  A    between atoms: _241  and  _242
REMARK   89  A    between atoms: _241  and  _244
REMARK   90  A    between atoms: _244  and  _245
REMARK   91  A    between atoms: _248  and  _250
REMARK   92  A    between atoms: _250  and  _251
REMARK   93  A    between atoms: _250  and  _253
REMARK   94  A    between atoms: _253  and  _254
REMARK                            x       y       z     vdW  Elec       q    Type
REMARK                         _______ _______ _______ _____ _____    ______ ____
ROOT
ATOM      1  O   HOH     1      85.620  91.036 -37.678  0.00  0.00    +0.000 OA
ENDROOT
TORSDOF 0
