REMARK  Name = ../refined-set-2016/3td4/3td4_pocket.pdb
REMARK  111 active torsions:
REMARK  status: ('A' for Active; 'I' for Inactive)
REMARK    1  A    between atoms: _1  and  _3
REMARK    2  A    between atoms: _3  and  _4
REMARK    3  A    between atoms: _3  and  _6
REMARK    4  A    between atoms: _6  and  _7
REMARK    5  A    between atoms: _13  and  _15
REMARK    6  A    between atoms: _15  and  _16
REMARK    7  A    between atoms: _15  and  _18
REMARK    8  A    between atoms: _18  and  _19
REMARK    9  A    between atoms: _22  and  _24
REMARK   10  A    between atoms: _24  and  _25
REMARK   11  A    between atoms: _24  and  _27
REMARK   12  A    between atoms: _27  and  _28
REMARK   13  A    between atoms: _31  and  _33
REMARK   14  A    between atoms: _33  and  _34
REMARK   15  A    between atoms: _33  and  _36
REMARK   16  A    between atoms: _36  and  _37
REMARK   17  A    between atoms: _42  and  _44
REMARK   18  A    between atoms: _44  and  _45
REMARK   19  A    between atoms: _44  and  _47
REMARK   20  A    between atoms: _47  and  _48
REMARK   21  A    between atoms: _48  and  _49
REMARK   22  A    between atoms: _49  and  _50
REMARK   23  A    between atoms: _50  and  _51
REMARK   24  A    between atoms: _55  and  _57
REMARK   25  A    between atoms: _57  and  _58
REMARK   26  A    between atoms: _57  and  _60
REMARK   27  A    between atoms: _60  and  _61
REMARK   28  A    between atoms: _63  and  _65
REMARK   29  A    between atoms: _65  and  _66
REMARK   30  A    between atoms: _65  and  _68
REMARK   31  A    between atoms: _68  and  _69
REMARK   32  A    between atoms: _74  and  _76
REMARK   33  A    between atoms: _76  and  _77
REMARK   34  A    between atoms: _76  and  _79
REMARK   35  A    between atoms: _79  and  _80
REMARK   36  A    between atoms: _83  and  _85
REMARK   37  A    between atoms: _85  and  _86
REMARK   38  A    between atoms: _85  and  _88
REMARK   39  A    between atoms: _88  and  _89
REMARK   40  A    between atoms: _92  and  _94
REMARK   41  A    between atoms: _94  and  _95
REMARK   42  A    between atoms: _94  and  _97
REMARK   43  A    between atoms: _97  and  _98
REMARK   44  A    between atoms: _103  and  _105
REMARK   45  A    between atoms: _105  and  _106
REMARK   46  A    between atoms: _105  and  _108
REMARK   47  A    between atoms: _108  and  _109
REMARK   48  A    between atoms: _112  and  _114
REMARK   49  A    between atoms: _114  and  _115
REMARK   50  A    between atoms: _118  and  _119
REMARK   51  A    between atoms: _124  and  _126
REMARK   52  A    between atoms: _126  and  _127
REMARK   53  A    between atoms: _126  and  _129
REMARK   54  A    between atoms: _129  and  _130
REMARK   55  A    between atoms: _133  and  _135
REMARK   56  A    between atoms: _135  and  _136
REMARK   57  A    between atoms: _135  and  _138
REMARK   58  A    between atoms: _138  and  _139
REMARK   59  A    between atoms: _144  and  _146
REMARK   60  A    between atoms: _146  and  _147
REMARK   61  A    between atoms: _146  and  _149
REMARK   62  A    between atoms: _149  and  _150
REMARK   63  A    between atoms: _150  and  _151
REMARK   64  A    between atoms: _154  and  _156
REMARK   65  A    between atoms: _156  and  _157
REMARK   66  A    between atoms: _156  and  _159
REMARK   67  A    between atoms: _159  and  _160
REMARK   68  A    between atoms: _163  and  _165
REMARK   69  A    between atoms: _165  and  _166
REMARK   70  A    between atoms: _165  and  _168
REMARK   71  A    between atoms: _168  and  _169
REMARK   72  A    between atoms: _171  and  _173
REMARK   73  A    between atoms: _173  and  _174
REMARK   74  A    between atoms: _173  and  _176
REMARK   75  A    between atoms: _176  and  _177
REMARK   76  A    between atoms: _177  and  _178
REMARK   77  A    between atoms: _178  and  _179
REMARK   78  A    between atoms: _188  and  _190
REMARK   79  A    between atoms: _190  and  _191
REMARK   80  A    between atoms: _194  and  _196
REMARK   81  A    between atoms: _196  and  _197
REMARK   82  A    between atoms: _196  and  _199
REMARK   83  A    between atoms: _199  and  _200
REMARK   84  A    between atoms: _210  and  _212
REMARK   85  A    between atoms: _212  and  _213
REMARK   86  A    between atoms: _212  and  _215
REMARK   87  A    between atoms: _215  and  _216
REMARK   88  A    between atoms: _221  and  _223
REMARK   89  A    between atoms: _223  and  _224
REMARK   90  A    between atoms: _223  and  _226
REMARK   91  A    between atoms: _226  and  _227
REMARK   92  A    between atoms: _227  and  _228
REMARK   93  A    between atoms: _228  and  _229
REMARK   94  A    between atoms: _238  and  _240
REMARK   95  A    between atoms: _240  and  _241
REMARK   96  A    between atoms: _244  and  _246
REMARK   97  A    between atoms: _246  and  _247
REMARK   98  A    between atoms: _246  and  _249
REMARK   99  A    between atoms: _249  and  _250
REMARK  100  A    between atoms: _255  and  _257
REMARK  101  A    between atoms: _257  and  _258
REMARK  102  A    between atoms: _257  and  _260
REMARK  103  A    between atoms: _260  and  _261
REMARK  104  A    between atoms: _261  and  _262
REMARK  105  A    between atoms: _262  and  _263
REMARK  106  A    between atoms: _272  and  _274
REMARK  107  A    between atoms: _274  and  _275
REMARK  108  A    between atoms: _274  and  _277
REMARK  109  A    between atoms: _277  and  _278
REMARK  110  A    between atoms: _278  and  _279
REMARK  111  A    between atoms: _279  and  _280
REMARK                            x       y       z     vdW  Elec       q    Type
REMARK                         _______ _______ _______ _____ _____    ______ ____
ROOT
ATOM      1  C   THR A   3      16.795   5.886  29.824  0.00  0.00    +0.243 C 
ATOM      2  O   THR A   3      16.431   6.178  30.986  0.00  0.00    -0.273 OA
ATOM      3  N   ASN A   4      16.709   4.663  29.263  0.00  0.00    -0.297 N 
ATOM      4  H   ASN A   4      17.143   4.533  28.327  0.00  0.00    +0.150 HD
ENDROOT
BRANCH   3   5
ATOM      5  CA  ASN A   4      16.069   3.533  29.854  0.00  0.00    +0.158 C 
BRANCH   5   6
ATOM      6  C   ASN A   4      14.551   3.656  30.122  0.00  0.00    +0.241 C 
ATOM      7  O   ASN A   4      13.990   2.814  30.791  0.00  0.00    -0.273 OA
ATOM      8  N   LYS A   5      13.876   4.694  29.564  0.00  0.00    -0.297 N 
ATOM      9  H   LYS A   5      14.354   5.299  28.866  0.00  0.00    +0.150 HD
BRANCH   8  10
ATOM     10  CA  LYS A   5      12.501   4.972  29.926  0.00  0.00    +0.149 C 
BRANCH  10  11
ATOM     11  C   LYS A   5      11.636   4.891  28.651  0.00  0.00    +0.241 C 
ATOM     12  N   SER A   6      10.415   4.408  28.835  0.00  0.00    -0.296 N 
ATOM     13  H   SER A   6      10.137   4.036  29.765  0.00  0.00    +0.150 HD
ATOM     14  O   LYS A   5      12.151   5.158  27.564  0.00  0.00    -0.273 OA
BRANCH  12  15
ATOM     15  CA  SER A   6       9.439   4.399  27.703  0.00  0.00    +0.166 C 
BRANCH  15  16
ATOM     16  CB  SER A   6       8.197   5.260  28.035  0.00  0.00    +0.229 C 
ATOM     17  OG  SER A   6       7.208   5.255  27.302  0.00  0.00    -0.286 OA
ENDBRANCH  15  16
BRANCH  15  18
ATOM     18  C   SER A   6       9.141   2.963  27.350  0.00  0.00    +0.165 C 
BRANCH  18  19
ATOM     19  O   SER A   6       8.615   2.326  28.557  0.00  0.00    -0.380 OA
ATOM     20  H   SER A   6       8.407   1.378  28.364  0.00  0.00    +0.211 HD
ENDBRANCH  18  19
ENDBRANCH  15  18
ENDBRANCH  12  15
ENDBRANCH  10  11
BRANCH  10  21
ATOM     21  CB  LYS A   5      12.342   6.351  30.468  0.00  0.00    +0.029 C 
BRANCH  21  22
ATOM     22  CG  LYS A   5      13.145   6.618  31.866  0.00  0.00    +0.000 C 
BRANCH  22  23
ATOM     23  CD  LYS A   5      12.459   5.924  33.054  0.00  0.00    -0.024 C 
BRANCH  23  24
ATOM     24  CE  LYS A   5      11.243   6.838  33.517  0.00  0.00    -0.086 C 
BRANCH  24  25
ATOM     25  NZ  LYS A   5      10.540   6.210  34.743  0.00  0.00    +0.380 N 
ATOM     26  HZ1 LYS A   5      11.220   6.125  35.525  0.00  0.00    -0.089 HD
ATOM     27  HZ2 LYS A   5       9.748   6.817  35.035  0.00  0.00    -0.089 HD
ATOM     28  HZ3 LYS A   5      10.181   5.267  34.490  0.00  0.00    -0.089 HD
ENDBRANCH  24  25
ENDBRANCH  23  24
ENDBRANCH  22  23
ENDBRANCH  21  22
ENDBRANCH  10  21
ENDBRANCH   8  10
ENDBRANCH   5   6
BRANCH   5  29
ATOM     29  CB  ASN A   4      16.853   3.078  31.120  0.00  0.00    +0.114 C 
BRANCH  29  30
ATOM     30  CG  ASN A   4      16.753   1.596  31.303  0.00  0.00    +0.222 C 
ATOM     31  ND2 ASN A   4      16.479   1.159  32.516  0.00  0.00    -0.329 N 
ATOM     32 HD21 ASN A   4      16.376   1.834  33.301  0.00  0.00    +0.145 HD
ATOM     33 HD22 ASN A   4      16.366   0.140  32.688  0.00  0.00    +0.145 HD
ATOM     34  OD1 ASN A   4      16.882   0.834  30.352  0.00  0.00    -0.275 OA
ENDBRANCH  29  30
ENDBRANCH   5  29
ENDBRANCH   3   5
BRANCH   1  35
ATOM     35  CA  THR A   3      17.464   6.916  28.949  0.00  0.00    +0.176 C 
BRANCH  35  37
ATOM     36  C   ASP A   2      15.496   8.279  28.609  0.00  0.00    +0.241 C 
ATOM     37  N   THR A   3      16.791   8.226  28.922  0.00  0.00    -0.295 N 
ATOM     38  H   THR A   3      17.317   9.095  29.143  0.00  0.00    +0.150 HD
ATOM     39  O   ASP A   2      14.887   7.275  28.323  0.00  0.00    -0.273 OA
BRANCH  36  40
ATOM     40  CA  ASP A   2      14.825   9.643  28.645  0.00  0.00    +0.160 C 
BRANCH  40  42
ATOM     41  C   PHE A   1      13.824   9.706  26.459  0.00  0.00    +0.239 C 
ATOM     42  N   ASP A   2      13.636   9.616  27.760  0.00  0.00    -0.297 N 
ATOM     43  H   ASP A   2      12.678   9.528  28.156  0.00  0.00    +0.150 HD
ATOM     44  O   PHE A   1      14.940   9.806  25.930  0.00  0.00    -0.274 OA
BRANCH  41  45
ATOM     45  CA  PHE A   1      12.581   9.536  25.614  0.00  0.00    +0.149 C 
BRANCH  45  46
ATOM     46  N   PHE A   1      12.721  10.124  24.307  0.00  0.00    -0.238 NA
ATOM     47  H   PHE A   1      13.540   9.894  23.709  0.00  0.00    +0.142 HD
ENDBRANCH  45  46
BRANCH  45  48
ATOM     48  CB  PHE A   1      12.396   8.023  25.473  0.00  0.00    +0.053 C 
BRANCH  48  49
ATOM     49  CG  PHE A   1      11.122   7.679  24.782  0.00  0.00    -0.020 A 
ATOM     50  CD2 PHE A   1       9.934   7.463  25.551  0.00  0.00    -0.004 A 
ATOM     51  CE2 PHE A   1       8.634   7.211  24.809  0.00  0.00    -0.000 A 
ATOM     52  CZ  PHE A   1       8.649   7.241  23.415  0.00  0.00    -0.000 A 
ATOM     53  CE1 PHE A   1       9.824   7.543  22.654  0.00  0.00    -0.000 A 
ATOM     54  CD1 PHE A   1      11.072   7.751  23.364  0.00  0.00    -0.004 A 
ENDBRANCH  48  49
ENDBRANCH  45  48
ENDBRANCH  41  45
ENDBRANCH  40  42
BRANCH  40  55
ATOM     55  CB  ASP A   2      14.364   9.926  30.049  0.00  0.00    +0.143 C 
BRANCH  55  56
ATOM     56  CG  ASP A   2      13.936  11.349  30.239  0.00  0.00    +0.367 C 
ATOM     57  OD2 ASP A   2      13.158  11.587  31.198  0.00  0.00    -0.246 OA
ATOM     58  OD1 ASP A   2      14.374  12.254  29.476  0.00  0.00    -0.246 OA
ENDBRANCH  55  56
ENDBRANCH  40  55
ENDBRANCH  36  40
ENDBRANCH  35  37
BRANCH  35  59
ATOM     59  CB  THR A   3      18.960   7.025  29.393  0.00  0.00    +0.137 C 
ATOM     60  CG2 THR A   3      19.542   8.185  28.731  0.00  0.00    +0.034 C 
BRANCH  59  61
ATOM     61  OG1 THR A   3      18.960   7.418  30.770  0.00  0.00    -0.382 OA
ATOM     62  HG1 THR A   3      18.484   6.736  31.307  0.00  0.00    +0.210 HD
ENDBRANCH  59  61
ENDBRANCH  35  59
ENDBRANCH   1  35
TORSDOF 27
REMARK  Name = ../refined-set-2016/3td4/3td4_pocket.pdb
REMARK  111 active torsions:
REMARK  status: ('A' for Active; 'I' for Inactive)
REMARK    1  A    between atoms: _1  and  _3
REMARK    2  A    between atoms: _3  and  _4
REMARK    3  A    between atoms: _3  and  _6
REMARK    4  A    between atoms: _6  and  _7
REMARK    5  A    between atoms: _13  and  _15
REMARK    6  A    between atoms: _15  and  _16
REMARK    7  A    between atoms: _15  and  _18
REMARK    8  A    between atoms: _18  and  _19
REMARK    9  A    between atoms: _22  and  _24
REMARK   10  A    between atoms: _24  and  _25
REMARK   11  A    between atoms: _24  and  _27
REMARK   12  A    between atoms: _27  and  _28
REMARK   13  A    between atoms: _31  and  _33
REMARK   14  A    between atoms: _33  and  _34
REMARK   15  A    between atoms: _33  and  _36
REMARK   16  A    between atoms: _36  and  _37
REMARK   17  A    between atoms: _42  and  _44
REMARK   18  A    between atoms: _44  and  _45
REMARK   19  A    between atoms: _44  and  _47
REMARK   20  A    between atoms: _47  and  _48
REMARK   21  A    between atoms: _48  and  _49
REMARK   22  A    between atoms: _49  and  _50
REMARK   23  A    between atoms: _50  and  _51
REMARK   24  A    between atoms: _55  and  _57
REMARK   25  A    between atoms: _57  and  _58
REMARK   26  A    between atoms: _57  and  _60
REMARK   27  A    between atoms: _60  and  _61
REMARK   28  A    between atoms: _63  and  _65
REMARK   29  A    between atoms: _65  and  _66
REMARK   30  A    between atoms: _65  and  _68
REMARK   31  A    between atoms: _68  and  _69
REMARK   32  A    between atoms: _74  and  _76
REMARK   33  A    between atoms: _76  and  _77
REMARK   34  A    between atoms: _76  and  _79
REMARK   35  A    between atoms: _79  and  _80
REMARK   36  A    between atoms: _83  and  _85
REMARK   37  A    between atoms: _85  and  _86
REMARK   38  A    between atoms: _85  and  _88
REMARK   39  A    between atoms: _88  and  _89
REMARK   40  A    between atoms: _92  and  _94
REMARK   41  A    between atoms: _94  and  _95
REMARK   42  A    between atoms: _94  and  _97
REMARK   43  A    between atoms: _97  and  _98
REMARK   44  A    between atoms: _103  and  _105
REMARK   45  A    between atoms: _105  and  _106
REMARK   46  A    between atoms: _105  and  _108
REMARK   47  A    between atoms: _108  and  _109
REMARK   48  A    between atoms: _112  and  _114
REMARK   49  A    between atoms: _114  and  _115
REMARK   50  A    between atoms: _118  and  _119
REMARK   51  A    between atoms: _124  and  _126
REMARK   52  A    between atoms: _126  and  _127
REMARK   53  A    between atoms: _126  and  _129
REMARK   54  A    between atoms: _129  and  _130
REMARK   55  A    between atoms: _133  and  _135
REMARK   56  A    between atoms: _135  and  _136
REMARK   57  A    between atoms: _135  and  _138
REMARK   58  A    between atoms: _138  and  _139
REMARK   59  A    between atoms: _144  and  _146
REMARK   60  A    between atoms: _146  and  _147
REMARK   61  A    between atoms: _146  and  _149
REMARK   62  A    between atoms: _149  and  _150
REMARK   63  A    between atoms: _150  and  _151
REMARK   64  A    between atoms: _154  and  _156
REMARK   65  A    between atoms: _156  and  _157
REMARK   66  A    between atoms: _156  and  _159
REMARK   67  A    between atoms: _159  and  _160
REMARK   68  A    between atoms: _163  and  _165
REMARK   69  A    between atoms: _165  and  _166
REMARK   70  A    between atoms: _165  and  _168
REMARK   71  A    between atoms: _168  and  _169
REMARK   72  A    between atoms: _171  and  _173
REMARK   73  A    between atoms: _173  and  _174
REMARK   74  A    between atoms: _173  and  _176
REMARK   75  A    between atoms: _176  and  _177
REMARK   76  A    between atoms: _177  and  _178
REMARK   77  A    between atoms: _178  and  _179
REMARK   78  A    between atoms: _188  and  _190
REMARK   79  A    between atoms: _190  and  _191
REMARK   80  A    between atoms: _194  and  _196
REMARK   81  A    between atoms: _196  and  _197
REMARK   82  A    between atoms: _196  and  _199
REMARK   83  A    between atoms: _199  and  _200
REMARK   84  A    between atoms: _210  and  _212
REMARK   85  A    between atoms: _212  and  _213
REMARK   86  A    between atoms: _212  and  _215
REMARK   87  A    between atoms: _215  and  _216
REMARK   88  A    between atoms: _221  and  _223
REMARK   89  A    between atoms: _223  and  _224
REMARK   90  A    between atoms: _223  and  _226
REMARK   91  A    between atoms: _226  and  _227
REMARK   92  A    between atoms: _227  and  _228
REMARK   93  A    between atoms: _228  and  _229
REMARK   94  A    between atoms: _238  and  _240
REMARK   95  A    between atoms: _240  and  _241
REMARK   96  A    between atoms: _244  and  _246
REMARK   97  A    between atoms: _246  and  _247
REMARK   98  A    between atoms: _246  and  _249
REMARK   99  A    between atoms: _249  and  _250
REMARK  100  A    between atoms: _255  and  _257
REMARK  101  A    between atoms: _257  and  _258
REMARK  102  A    between atoms: _257  and  _260
REMARK  103  A    between atoms: _260  and  _261
REMARK  104  A    between atoms: _261  and  _262
REMARK  105  A    between atoms: _262  and  _263
REMARK  106  A    between atoms: _272  and  _274
REMARK  107  A    between atoms: _274  and  _275
REMARK  108  A    between atoms: _274  and  _277
REMARK  109  A    between atoms: _277  and  _278
REMARK  110  A    between atoms: _278  and  _279
REMARK  111  A    between atoms: _279  and  _280
REMARK                            x       y       z     vdW  Elec       q    Type
REMARK                         _______ _______ _______ _____ _____    ______ ____
ROOT
ATOM      1  C   ASP A   3      21.293   3.313  21.568  0.00  0.00    +0.241 C 
ATOM      2  O   ASP A   3      20.691   2.244  21.922  0.00  0.00    -0.273 OA
ATOM      3  N   ASN A   4      22.596   3.319  21.240  0.00  0.00    -0.297 N 
ATOM      4  H   ASN A   4      23.111   4.212  21.102  0.00  0.00    +0.150 HD
ENDROOT
BRANCH   3   5
ATOM      5  CA  ASN A   4      23.284   1.991  21.079  0.00  0.00    +0.158 C 
BRANCH   5   6
ATOM      6  C   ASN A   4      23.948   1.544  22.408  0.00  0.00    +0.241 C 
ATOM      7  N   THR A   5      23.571   2.120  23.512  0.00  0.00    -0.295 N 
ATOM      8  H   THR A   5      22.840   2.859  23.488  0.00  0.00    +0.150 HD
ATOM      9  O   ASN A   4      24.772   0.618  22.407  0.00  0.00    -0.273 OA
BRANCH   7  10
ATOM     10  CA  THR A   5      24.177   1.728  24.796  0.00  0.00    +0.176 C 
BRANCH  10  11
ATOM     11  C   THR A   5      23.435   0.582  25.523  0.00  0.00    +0.243 C 
ATOM     12  N   GLY A   6      24.178  -0.295  26.206  0.00  0.00    -0.295 N 
ATOM     13  H   GLY A   6      25.213  -0.304  26.109  0.00  0.00    +0.150 HD
ATOM     14  O   THR A   5      22.201   0.502  25.473  0.00  0.00    -0.273 OA
BRANCH  12  15
ATOM     15  CA  GLY A   6      23.503  -1.238  27.090  0.00  0.00    +0.176 C 
BRANCH  15  16
ATOM     16  C   GLY A   6      23.207  -2.530  26.344  0.00  0.00    +0.246 C 
ATOM     17  N   PRO A   7      22.710  -3.575  27.067  0.00  0.00    -0.273 N 
ATOM     18  CD  PRO A   7      22.387  -3.611  28.501  0.00  0.00    +0.094 C 
ATOM     19  CG  PRO A   7      22.597  -5.092  28.835  0.00  0.00    +0.024 C 
ATOM     20  CB  PRO A   7      21.981  -5.770  27.578  0.00  0.00    +0.030 C 
ATOM     21  CA  PRO A   7      22.552  -4.879  26.423  0.00  0.00    +0.140 C 
ATOM     22  O   GLY A   6      23.414  -2.598  25.113  0.00  0.00    -0.273 OA
BRANCH  21  23
ATOM     23  C   PRO A   7      21.603  -4.871  25.199  0.00  0.00    +0.227 C 
ATOM     24  O   PRO A   7      20.573  -4.214  25.259  0.00  0.00    -0.286 OA
ENDBRANCH  21  23
ENDBRANCH  15  16
ENDBRANCH  12  15
ENDBRANCH  10  11
BRANCH  10  25
ATOM     25  CB  THR A   5      24.318   2.906  25.745  0.00  0.00    +0.137 C 
ATOM     26  CG2 THR A   5      25.098   4.023  25.104  0.00  0.00    +0.034 C 
BRANCH  25  27
ATOM     27  OG1 THR A   5      23.057   3.407  26.173  0.00  0.00    -0.382 OA
ATOM     28  HG1 THR A   5      22.538   3.707  25.385  0.00  0.00    +0.210 HD
ENDBRANCH  25  27
ENDBRANCH  10  25
ENDBRANCH   7  10
ENDBRANCH   5   6
BRANCH   5  29
ATOM     29  CB  ASN A   4      24.290   2.093  19.958  0.00  0.00    +0.114 C 
BRANCH  29  30
ATOM     30  CG  ASN A   4      25.472   2.871  20.341  0.00  0.00    +0.222 C 
ATOM     31  OD1 ASN A   4      25.479   3.594  21.332  0.00  0.00    -0.275 OA
ATOM     32  ND2 ASN A   4      26.555   2.725  19.507  0.00  0.00    -0.329 N 
ATOM     33 HD21 ASN A   4      27.436   3.242  19.703  0.00  0.00    +0.145 HD
ATOM     34 HD22 ASN A   4      26.493   2.098  18.680  0.00  0.00    +0.145 HD
ENDBRANCH  29  30
ENDBRANCH   5  29
ENDBRANCH   3   5
BRANCH   1  35
ATOM     35  CA  ASP A   3      20.514   4.632  21.371  0.00  0.00    +0.160 C 
BRANCH  35  37
ATOM     36  C   THR A   2      18.328   3.820  20.803  0.00  0.00    +0.243 C 
ATOM     37  N   ASP A   3      19.099   4.362  21.771  0.00  0.00    -0.296 N 
ATOM     38  H   ASP A   3      18.736   4.575  22.722  0.00  0.00    +0.150 HD
ATOM     39  O   THR A   2      18.685   3.707  19.627  0.00  0.00    -0.273 OA
BRANCH  36  40
ATOM     40  CA  THR A   2      17.023   3.233  21.261  0.00  0.00    +0.176 C 
BRANCH  40  43
ATOM     41  C   HIS A   1      14.950   3.337  20.052  0.00  0.00    +0.239 C 
ATOM     42  O   HIS A   1      14.364   3.997  20.942  0.00  0.00    -0.274 OA
ATOM     43  N   THR A   2      16.209   2.925  20.108  0.00  0.00    -0.295 N 
ATOM     44  H   THR A   2      16.612   2.379  19.320  0.00  0.00    +0.150 HD
BRANCH  41  45
ATOM     45  CA  HIS A   1      14.270   3.039  18.757  0.00  0.00    +0.151 C 
BRANCH  45  46
ATOM     46  N   HIS A   1      12.846   3.139  19.015  0.00  0.00    -0.238 NA
ATOM     47  H   HIS A   1      12.506   3.765  19.773  0.00  0.00    +0.142 HD
ENDBRANCH  45  46
BRANCH  45  48
ATOM     48  CB  HIS A   1      14.674   4.156  17.762  0.00  0.00    +0.074 C 
BRANCH  48  49
ATOM     49  CG  HIS A   1      13.975   4.052  16.444  0.00  0.00    +0.082 A 
ATOM     50  CD2 HIS A   1      12.795   4.565  16.042  0.00  0.00    +0.115 A 
ATOM     51  NE2 HIS A   1      12.598   4.146  14.749  0.00  0.00    -0.221 NA
ATOM     52  CE1 HIS A   1      13.583   3.318  14.402  0.00  0.00    +0.199 A 
ATOM     53  ND1 HIS A   1      14.414   3.225  15.421  0.00  0.00    -0.227 NA
ENDBRANCH  48  49
ENDBRANCH  45  48
ENDBRANCH  41  45
ENDBRANCH  40  43
BRANCH  40  54
ATOM     54  CB  THR A   2      17.455   1.926  22.059  0.00  0.00    +0.137 C 
ATOM     55  CG2 THR A   2      16.229   1.236  22.655  0.00  0.00    +0.034 C 
BRANCH  54  56
ATOM     56  OG1 THR A   2      18.137   1.036  21.190  0.00  0.00    -0.382 OA
ATOM     57  HG1 THR A   2      18.944   1.482  20.830  0.00  0.00    +0.210 HD
ENDBRANCH  54  56
ENDBRANCH  40  54
ENDBRANCH  36  40
ENDBRANCH  35  37
BRANCH  35  58
ATOM     58  CB  ASP A   3      21.050   5.824  22.192  0.00  0.00    +0.143 C 
BRANCH  58  59
ATOM     59  CG  ASP A   3      21.199   5.471  23.788  0.00  0.00    +0.367 C 
ATOM     60  OD2 ASP A   3      20.884   6.314  24.679  0.00  0.00    -0.246 OA
ATOM     61  OD1 ASP A   3      21.540   4.296  24.143  0.00  0.00    -0.246 OA
ENDBRANCH  58  59
ENDBRANCH  35  58
ENDBRANCH   1  35
TORSDOF 23
REMARK  Name = ../refined-set-2016/3td4/3td4_pocket.pdb
REMARK  111 active torsions:
REMARK  status: ('A' for Active; 'I' for Inactive)
REMARK    1  A    between atoms: _1  and  _3
REMARK    2  A    between atoms: _3  and  _4
REMARK    3  A    between atoms: _3  and  _6
REMARK    4  A    between atoms: _6  and  _7
REMARK    5  A    between atoms: _13  and  _15
REMARK    6  A    between atoms: _15  and  _16
REMARK    7  A    between atoms: _15  and  _18
REMARK    8  A    between atoms: _18  and  _19
REMARK    9  A    between atoms: _22  and  _24
REMARK   10  A    between atoms: _24  and  _25
REMARK   11  A    between atoms: _24  and  _27
REMARK   12  A    between atoms: _27  and  _28
REMARK   13  A    between atoms: _31  and  _33
REMARK   14  A    between atoms: _33  and  _34
REMARK   15  A    between atoms: _33  and  _36
REMARK   16  A    between atoms: _36  and  _37
REMARK   17  A    between atoms: _42  and  _44
REMARK   18  A    between atoms: _44  and  _45
REMARK   19  A    between atoms: _44  and  _47
REMARK   20  A    between atoms: _47  and  _48
REMARK   21  A    between atoms: _48  and  _49
REMARK   22  A    between atoms: _49  and  _50
REMARK   23  A    between atoms: _50  and  _51
REMARK   24  A    between atoms: _55  and  _57
REMARK   25  A    between atoms: _57  and  _58
REMARK   26  A    between atoms: _57  and  _60
REMARK   27  A    between atoms: _60  and  _61
REMARK   28  A    between atoms: _63  and  _65
REMARK   29  A    between atoms: _65  and  _66
REMARK   30  A    between atoms: _65  and  _68
REMARK   31  A    between atoms: _68  and  _69
REMARK   32  A    between atoms: _74  and  _76
REMARK   33  A    between atoms: _76  and  _77
REMARK   34  A    between atoms: _76  and  _79
REMARK   35  A    between atoms: _79  and  _80
REMARK   36  A    between atoms: _83  and  _85
REMARK   37  A    between atoms: _85  and  _86
REMARK   38  A    between atoms: _85  and  _88
REMARK   39  A    between atoms: _88  and  _89
REMARK   40  A    between atoms: _92  and  _94
REMARK   41  A    between atoms: _94  and  _95
REMARK   42  A    between atoms: _94  and  _97
REMARK   43  A    between atoms: _97  and  _98
REMARK   44  A    between atoms: _103  and  _105
REMARK   45  A    between atoms: _105  and  _106
REMARK   46  A    between atoms: _105  and  _108
REMARK   47  A    between atoms: _108  and  _109
REMARK   48  A    between atoms: _112  and  _114
REMARK   49  A    between atoms: _114  and  _115
REMARK   50  A    between atoms: _118  and  _119
REMARK   51  A    between atoms: _124  and  _126
REMARK   52  A    between atoms: _126  and  _127
REMARK   53  A    between atoms: _126  and  _129
REMARK   54  A    between atoms: _129  and  _130
REMARK   55  A    between atoms: _133  and  _135
REMARK   56  A    between atoms: _135  and  _136
REMARK   57  A    between atoms: _135  and  _138
REMARK   58  A    between atoms: _138  and  _139
REMARK   59  A    between atoms: _144  and  _146
REMARK   60  A    between atoms: _146  and  _147
REMARK   61  A    between atoms: _146  and  _149
REMARK   62  A    between atoms: _149  and  _150
REMARK   63  A    between atoms: _150  and  _151
REMARK   64  A    between atoms: _154  and  _156
REMARK   65  A    between atoms: _156  and  _157
REMARK   66  A    between atoms: _156  and  _159
REMARK   67  A    between atoms: _159  and  _160
REMARK   68  A    between atoms: _163  and  _165
REMARK   69  A    between atoms: _165  and  _166
REMARK   70  A    between atoms: _165  and  _168
REMARK   71  A    between atoms: _168  and  _169
REMARK   72  A    between atoms: _171  and  _173
REMARK   73  A    between atoms: _173  and  _174
REMARK   74  A    between atoms: _173  and  _176
REMARK   75  A    between atoms: _176  and  _177
REMARK   76  A    between atoms: _177  and  _178
REMARK   77  A    between atoms: _178  and  _179
REMARK   78  A    between atoms: _188  and  _190
REMARK   79  A    between atoms: _190  and  _191
REMARK   80  A    between atoms: _194  and  _196
REMARK   81  A    between atoms: _196  and  _197
REMARK   82  A    between atoms: _196  and  _199
REMARK   83  A    between atoms: _199  and  _200
REMARK   84  A    between atoms: _210  and  _212
REMARK   85  A    between atoms: _212  and  _213
REMARK   86  A    between atoms: _212  and  _215
REMARK   87  A    between atoms: _215  and  _216
REMARK   88  A    between atoms: _221  and  _223
REMARK   89  A    between atoms: _223  and  _224
REMARK   90  A    between atoms: _223  and  _226
REMARK   91  A    between atoms: _226  and  _227
REMARK   92  A    between atoms: _227  and  _228
REMARK   93  A    between atoms: _228  and  _229
REMARK   94  A    between atoms: _238  and  _240
REMARK   95  A    between atoms: _240  and  _241
REMARK   96  A    between atoms: _244  and  _246
REMARK   97  A    between atoms: _246  and  _247
REMARK   98  A    between atoms: _246  and  _249
REMARK   99  A    between atoms: _249  and  _250
REMARK  100  A    between atoms: _255  and  _257
REMARK  101  A    between atoms: _257  and  _258
REMARK  102  A    between atoms: _257  and  _260
REMARK  103  A    between atoms: _260  and  _261
REMARK  104  A    between atoms: _261  and  _262
REMARK  105  A    between atoms: _262  and  _263
REMARK  106  A    between atoms: _272  and  _274
REMARK  107  A    between atoms: _274  and  _275
REMARK  108  A    between atoms: _274  and  _277
REMARK  109  A    between atoms: _277  and  _278
REMARK  110  A    between atoms: _278  and  _279
REMARK  111  A    between atoms: _279  and  _280
REMARK                            x       y       z     vdW  Elec       q    Type
REMARK                         _______ _______ _______ _____ _____    ______ ____
ROOT
ATOM      1  CA  ASN A   2      17.140  -2.299  23.573  0.00  0.00    +0.158 C 
ENDROOT
BRANCH   1   4
ATOM      2  C   LEU A   1      16.651  -3.527  25.707  0.00  0.00    +0.238 C 
ATOM      3  O   LEU A   1      15.568  -3.031  25.882  0.00  0.00    -0.274 OA
ATOM      4  N   ASN A   2      17.431  -3.265  24.672  0.00  0.00    -0.297 N 
ATOM      5  H   ASN A   2      18.332  -3.781  24.619  0.00  0.00    +0.150 HD
BRANCH   2   6
ATOM      6  CA  LEU A   1      17.208  -4.546  26.741  0.00  0.00    +0.145 C 
BRANCH   6   7
ATOM      7  N   LEU A   1      17.782  -5.651  26.059  0.00  0.00    -0.238 NA
ATOM      8  H   LEU A   1      18.773  -5.891  26.262  0.00  0.00    +0.142 HD
ENDBRANCH   6   7
BRANCH   6   9
ATOM      9  CB  LEU A   1      18.289  -3.846  27.623  0.00  0.00    +0.026 C 
BRANCH   9  10
ATOM     10  CG  LEU A   1      17.862  -2.618  28.415  0.00  0.00    +0.002 C 
ATOM     11  CD2 LEU A   1      18.691  -2.427  29.719  0.00  0.00    +0.000 C 
ATOM     12  CD1 LEU A   1      17.906  -1.364  27.562  0.00  0.00    +0.000 C 
ENDBRANCH   9  10
ENDBRANCH   6   9
ENDBRANCH   2   6
ENDBRANCH   1   4
BRANCH   1  13
ATOM     13  C   ASN A   2      16.114  -2.801  22.645  0.00  0.00    +0.241 C 
ATOM     14  N   GLU A   3      16.125  -4.117  22.444  0.00  0.00    -0.298 N 
ATOM     15  H   GLU A   3      16.873  -4.714  22.850  0.00  0.00    +0.150 HD
ATOM     16  O   ASN A   2      15.243  -2.040  22.263  0.00  0.00    -0.273 OA
BRANCH  14  17
ATOM     17  CA  GLU A   3      15.036  -4.707  21.622  0.00  0.00    +0.137 C 
BRANCH  17  18
ATOM     18  C   GLU A   3      13.724  -4.412  22.353  0.00  0.00    +0.227 C 
ATOM     19  O   GLU A   3      12.745  -3.924  21.743  0.00  0.00    -0.286 OA
ENDBRANCH  17  18
BRANCH  17  20
ATOM     20  CB  GLU A   3      15.258  -6.210  21.375  0.00  0.00    +0.039 C 
BRANCH  20  21
ATOM     21  CG  GLU A   3      16.488  -6.402  20.482  0.00  0.00    +0.116 C 
BRANCH  21  22
ATOM     22  CD  GLU A   3      16.790  -7.869  20.147  0.00  0.00    +0.365 C 
ATOM     23  OE2 GLU A   3      16.112  -8.724  20.673  0.00  0.00    -0.246 OA
ATOM     24  OE1 GLU A   3      17.718  -8.129  19.408  0.00  0.00    -0.246 OA
ENDBRANCH  21  22
ENDBRANCH  20  21
ENDBRANCH  17  20
ENDBRANCH  14  17
ENDBRANCH   1  13
BRANCH   1  25
ATOM     25  CB  ASN A   2      18.417  -1.889  22.885  0.00  0.00    +0.114 C 
BRANCH  25  26
ATOM     26  CG  ASN A   2      19.222  -0.993  23.845  0.00  0.00    +0.222 C 
ATOM     27  OD1 ASN A   2      18.709   0.014  24.307  0.00  0.00    -0.275 OA
ATOM     28  ND2 ASN A   2      20.417  -1.421  24.229  0.00  0.00    -0.329 N 
ATOM     29 HD21 ASN A   2      20.952  -0.894  24.948  0.00  0.00    +0.145 HD
ATOM     30 HD22 ASN A   2      20.819  -2.284  23.811  0.00  0.00    +0.145 HD
ENDBRANCH  25  26
ENDBRANCH   1  25
TORSDOF 13
REMARK  Name = ../refined-set-2016/3td4/3td4_pocket.pdb
REMARK  111 active torsions:
REMARK  status: ('A' for Active; 'I' for Inactive)
REMARK    1  A    between atoms: _1  and  _3
REMARK    2  A    between atoms: _3  and  _4
REMARK    3  A    between atoms: _3  and  _6
REMARK    4  A    between atoms: _6  and  _7
REMARK    5  A    between atoms: _13  and  _15
REMARK    6  A    between atoms: _15  and  _16
REMARK    7  A    between atoms: _15  and  _18
REMARK    8  A    between atoms: _18  and  _19
REMARK    9  A    between atoms: _22  and  _24
REMARK   10  A    between atoms: _24  and  _25
REMARK   11  A    between atoms: _24  and  _27
REMARK   12  A    between atoms: _27  and  _28
REMARK   13  A    between atoms: _31  and  _33
REMARK   14  A    between atoms: _33  and  _34
REMARK   15  A    between atoms: _33  and  _36
REMARK   16  A    between atoms: _36  and  _37
REMARK   17  A    between atoms: _42  and  _44
REMARK   18  A    between atoms: _44  and  _45
REMARK   19  A    between atoms: _44  and  _47
REMARK   20  A    between atoms: _47  and  _48
REMARK   21  A    between atoms: _48  and  _49
REMARK   22  A    between atoms: _49  and  _50
REMARK   23  A    between atoms: _50  and  _51
REMARK   24  A    between atoms: _55  and  _57
REMARK   25  A    between atoms: _57  and  _58
REMARK   26  A    between atoms: _57  and  _60
REMARK   27  A    between atoms: _60  and  _61
REMARK   28  A    between atoms: _63  and  _65
REMARK   29  A    between atoms: _65  and  _66
REMARK   30  A    between atoms: _65  and  _68
REMARK   31  A    between atoms: _68  and  _69
REMARK   32  A    between atoms: _74  and  _76
REMARK   33  A    between atoms: _76  and  _77
REMARK   34  A    between atoms: _76  and  _79
REMARK   35  A    between atoms: _79  and  _80
REMARK   36  A    between atoms: _83  and  _85
REMARK   37  A    between atoms: _85  and  _86
REMARK   38  A    between atoms: _85  and  _88
REMARK   39  A    between atoms: _88  and  _89
REMARK   40  A    between atoms: _92  and  _94
REMARK   41  A    between atoms: _94  and  _95
REMARK   42  A    between atoms: _94  and  _97
REMARK   43  A    between atoms: _97  and  _98
REMARK   44  A    between atoms: _103  and  _105
REMARK   45  A    between atoms: _105  and  _106
REMARK   46  A    between atoms: _105  and  _108
REMARK   47  A    between atoms: _108  and  _109
REMARK   48  A    between atoms: _112  and  _114
REMARK   49  A    between atoms: _114  and  _115
REMARK   50  A    between atoms: _118  and  _119
REMARK   51  A    between atoms: _124  and  _126
REMARK   52  A    between atoms: _126  and  _127
REMARK   53  A    between atoms: _126  and  _129
REMARK   54  A    between atoms: _129  and  _130
REMARK   55  A    between atoms: _133  and  _135
REMARK   56  A    between atoms: _135  and  _136
REMARK   57  A    between atoms: _135  and  _138
REMARK   58  A    between atoms: _138  and  _139
REMARK   59  A    between atoms: _144  and  _146
REMARK   60  A    between atoms: _146  and  _147
REMARK   61  A    between atoms: _146  and  _149
REMARK   62  A    between atoms: _149  and  _150
REMARK   63  A    between atoms: _150  and  _151
REMARK   64  A    between atoms: _154  and  _156
REMARK   65  A    between atoms: _156  and  _157
REMARK   66  A    between atoms: _156  and  _159
REMARK   67  A    between atoms: _159  and  _160
REMARK   68  A    between atoms: _163  and  _165
REMARK   69  A    between atoms: _165  and  _166
REMARK   70  A    between atoms: _165  and  _168
REMARK   71  A    between atoms: _168  and  _169
REMARK   72  A    between atoms: _171  and  _173
REMARK   73  A    between atoms: _173  and  _174
REMARK   74  A    between atoms: _173  and  _176
REMARK   75  A    between atoms: _176  and  _177
REMARK   76  A    between atoms: _177  and  _178
REMARK   77  A    between atoms: _178  and  _179
REMARK   78  A    between atoms: _188  and  _190
REMARK   79  A    between atoms: _190  and  _191
REMARK   80  A    between atoms: _194  and  _196
REMARK   81  A    between atoms: _196  and  _197
REMARK   82  A    between atoms: _196  and  _199
REMARK   83  A    between atoms: _199  and  _200
REMARK   84  A    between atoms: _210  and  _212
REMARK   85  A    between atoms: _212  and  _213
REMARK   86  A    between atoms: _212  and  _215
REMARK   87  A    between atoms: _215  and  _216
REMARK   88  A    between atoms: _221  and  _223
REMARK   89  A    between atoms: _223  and  _224
REMARK   90  A    between atoms: _223  and  _226
REMARK   91  A    between atoms: _226  and  _227
REMARK   92  A    between atoms: _227  and  _228
REMARK   93  A    between atoms: _228  and  _229
REMARK   94  A    between atoms: _238  and  _240
REMARK   95  A    between atoms: _240  and  _241
REMARK   96  A    between atoms: _244  and  _246
REMARK   97  A    between atoms: _246  and  _247
REMARK   98  A    between atoms: _246  and  _249
REMARK   99  A    between atoms: _249  and  _250
REMARK  100  A    between atoms: _255  and  _257
REMARK  101  A    between atoms: _257  and  _258
REMARK  102  A    between atoms: _257  and  _260
REMARK  103  A    between atoms: _260  and  _261
REMARK  104  A    between atoms: _261  and  _262
REMARK  105  A    between atoms: _262  and  _263
REMARK  106  A    between atoms: _272  and  _274
REMARK  107  A    between atoms: _274  and  _275
REMARK  108  A    between atoms: _274  and  _277
REMARK  109  A    between atoms: _277  and  _278
REMARK  110  A    between atoms: _278  and  _279
REMARK  111  A    between atoms: _279  and  _280
REMARK                            x       y       z     vdW  Elec       q    Type
REMARK                         _______ _______ _______ _____ _____    ______ ____
ROOT
ATOM      1  C   LEU A   1      12.255  -0.194  23.885  0.00  0.00    +0.238 C 
ATOM      2  O   LEU A   1      11.378   0.659  23.993  0.00  0.00    -0.274 OA
ATOM      3  N   SER A   2      12.858  -0.507  22.753  0.00  0.00    -0.296 N 
ATOM      4  H   SER A   2      13.617  -1.217  22.740  0.00  0.00    +0.150 HD
ENDROOT
BRANCH   1   5
ATOM      5  CA  LEU A   1      12.735  -0.934  25.143  0.00  0.00    +0.145 C 
BRANCH   5   6
ATOM      6  N   LEU A   1      13.026  -2.360  24.830  0.00  0.00    -0.238 NA
ATOM      7  H   LEU A   1      14.010  -2.697  24.856  0.00  0.00    +0.142 HD
ENDBRANCH   5   6
BRANCH   5   8
ATOM      8  CB  LEU A   1      14.027  -0.251  25.663  0.00  0.00    +0.026 C 
BRANCH   8   9
ATOM      9  CG  LEU A   1      13.905   1.209  26.015  0.00  0.00    +0.002 C 
ATOM     10  CD2 LEU A   1      12.853   1.550  27.114  0.00  0.00    +0.000 C 
ATOM     11  CD1 LEU A   1      15.307   1.667  26.424  0.00  0.00    +0.000 C 
ENDBRANCH   8   9
ENDBRANCH   5   8
ENDBRANCH   1   5
BRANCH   3  12
ATOM     12  CA  SER A   2      12.441   0.164  21.504  0.00  0.00    +0.166 C 
BRANCH  12  13
ATOM     13  CB  SER A   2      10.963  -0.187  21.278  0.00  0.00    +0.229 C 
ATOM     14  OG  SER A   2      10.176   0.720  20.967  0.00  0.00    -0.286 OA
ENDBRANCH  12  13
BRANCH  12  15
ATOM     15  C   SER A   2      13.330  -0.204  20.326  0.00  0.00    +0.165 C 
BRANCH  15  16
ATOM     16  O   SER A   2      13.314  -1.610  20.065  0.00  0.00    -0.380 OA
ATOM     17  H   SER A   2      13.639  -2.096  20.864  0.00  0.00    +0.211 HD
ENDBRANCH  15  16
ENDBRANCH  12  15
ENDBRANCH   3  12
TORSDOF 8
REMARK  Name = ../refined-set-2016/3td4/3td4_pocket.pdb
REMARK  111 active torsions:
REMARK  status: ('A' for Active; 'I' for Inactive)
REMARK    1  A    between atoms: _1  and  _3
REMARK    2  A    between atoms: _3  and  _4
REMARK    3  A    between atoms: _3  and  _6
REMARK    4  A    between atoms: _6  and  _7
REMARK    5  A    between atoms: _13  and  _15
REMARK    6  A    between atoms: _15  and  _16
REMARK    7  A    between atoms: _15  and  _18
REMARK    8  A    between atoms: _18  and  _19
REMARK    9  A    between atoms: _22  and  _24
REMARK   10  A    between atoms: _24  and  _25
REMARK   11  A    between atoms: _24  and  _27
REMARK   12  A    between atoms: _27  and  _28
REMARK   13  A    between atoms: _31  and  _33
REMARK   14  A    between atoms: _33  and  _34
REMARK   15  A    between atoms: _33  and  _36
REMARK   16  A    between atoms: _36  and  _37
REMARK   17  A    between atoms: _42  and  _44
REMARK   18  A    between atoms: _44  and  _45
REMARK   19  A    between atoms: _44  and  _47
REMARK   20  A    between atoms: _47  and  _48
REMARK   21  A    between atoms: _48  and  _49
REMARK   22  A    between atoms: _49  and  _50
REMARK   23  A    between atoms: _50  and  _51
REMARK   24  A    between atoms: _55  and  _57
REMARK   25  A    between atoms: _57  and  _58
REMARK   26  A    between atoms: _57  and  _60
REMARK   27  A    between atoms: _60  and  _61
REMARK   28  A    between atoms: _63  and  _65
REMARK   29  A    between atoms: _65  and  _66
REMARK   30  A    between atoms: _65  and  _68
REMARK   31  A    between atoms: _68  and  _69
REMARK   32  A    between atoms: _74  and  _76
REMARK   33  A    between atoms: _76  and  _77
REMARK   34  A    between atoms: _76  and  _79
REMARK   35  A    between atoms: _79  and  _80
REMARK   36  A    between atoms: _83  and  _85
REMARK   37  A    between atoms: _85  and  _86
REMARK   38  A    between atoms: _85  and  _88
REMARK   39  A    between atoms: _88  and  _89
REMARK   40  A    between atoms: _92  and  _94
REMARK   41  A    between atoms: _94  and  _95
REMARK   42  A    between atoms: _94  and  _97
REMARK   43  A    between atoms: _97  and  _98
REMARK   44  A    between atoms: _103  and  _105
REMARK   45  A    between atoms: _105  and  _106
REMARK   46  A    between atoms: _105  and  _108
REMARK   47  A    between atoms: _108  and  _109
REMARK   48  A    between atoms: _112  and  _114
REMARK   49  A    between atoms: _114  and  _115
REMARK   50  A    between atoms: _118  and  _119
REMARK   51  A    between atoms: _124  and  _126
REMARK   52  A    between atoms: _126  and  _127
REMARK   53  A    between atoms: _126  and  _129
REMARK   54  A    between atoms: _129  and  _130
REMARK   55  A    between atoms: _133  and  _135
REMARK   56  A    between atoms: _135  and  _136
REMARK   57  A    between atoms: _135  and  _138
REMARK   58  A    between atoms: _138  and  _139
REMARK   59  A    between atoms: _144  and  _146
REMARK   60  A    between atoms: _146  and  _147
REMARK   61  A    between atoms: _146  and  _149
REMARK   62  A    between atoms: _149  and  _150
REMARK   63  A    between atoms: _150  and  _151
REMARK   64  A    between atoms: _154  and  _156
REMARK   65  A    between atoms: _156  and  _157
REMARK   66  A    between atoms: _156  and  _159
REMARK   67  A    between atoms: _159  and  _160
REMARK   68  A    between atoms: _163  and  _165
REMARK   69  A    between atoms: _165  and  _166
REMARK   70  A    between atoms: _165  and  _168
REMARK   71  A    between atoms: _168  and  _169
REMARK   72  A    between atoms: _171  and  _173
REMARK   73  A    between atoms: _173  and  _174
REMARK   74  A    between atoms: _173  and  _176
REMARK   75  A    between atoms: _176  and  _177
REMARK   76  A    between atoms: _177  and  _178
REMARK   77  A    between atoms: _178  and  _179
REMARK   78  A    between atoms: _188  and  _190
REMARK   79  A    between atoms: _190  and  _191
REMARK   80  A    between atoms: _194  and  _196
REMARK   81  A    between atoms: _196  and  _197
REMARK   82  A    between atoms: _196  and  _199
REMARK   83  A    between atoms: _199  and  _200
REMARK   84  A    between atoms: _210  and  _212
REMARK   85  A    between atoms: _212  and  _213
REMARK   86  A    between atoms: _212  and  _215
REMARK   87  A    between atoms: _215  and  _216
REMARK   88  A    between atoms: _221  and  _223
REMARK   89  A    between atoms: _223  and  _224
REMARK   90  A    between atoms: _223  and  _226
REMARK   91  A    between atoms: _226  and  _227
REMARK   92  A    between atoms: _227  and  _228
REMARK   93  A    between atoms: _228  and  _229
REMARK   94  A    between atoms: _238  and  _240
REMARK   95  A    between atoms: _240  and  _241
REMARK   96  A    between atoms: _244  and  _246
REMARK   97  A    between atoms: _246  and  _247
REMARK   98  A    between atoms: _246  and  _249
REMARK   99  A    between atoms: _249  and  _250
REMARK  100  A    between atoms: _255  and  _257
REMARK  101  A    between atoms: _257  and  _258
REMARK  102  A    between atoms: _257  and  _260
REMARK  103  A    between atoms: _260  and  _261
REMARK  104  A    between atoms: _261  and  _262
REMARK  105  A    between atoms: _262  and  _263
REMARK  106  A    between atoms: _272  and  _274
REMARK  107  A    between atoms: _274  and  _275
REMARK  108  A    between atoms: _274  and  _277
REMARK  109  A    between atoms: _277  and  _278
REMARK  110  A    between atoms: _278  and  _279
REMARK  111  A    between atoms: _279  and  _280
REMARK                            x       y       z     vdW  Elec       q    Type
REMARK                         _______ _______ _______ _____ _____    ______ ____
ROOT
ATOM      1  NE  ARG A   1      12.952   4.708  24.685  0.00  0.00    -0.265 N 
ATOM      2  HE  ARG A   1      12.410   5.001  25.523  0.00  0.00    +0.259 HD
ATOM      3  CZ  ARG A   1      14.278   4.766  24.770  0.00  0.00    +0.342 C 
ATOM      4  NH2 ARG A   1      14.758   5.179  25.926  0.00  0.00    -0.292 N 
ATOM      5 HH21 ARG A   1      14.109   5.434  26.697  0.00  0.00    +0.255 HD
ATOM      6 HH22 ARG A   1      15.786   5.250  26.067  0.00  0.00    +0.255 HD
ATOM      7  NH1 ARG A   1      15.036   4.398  23.750  0.00  0.00    -0.292 N 
ATOM      8 HH11 ARG A   1      16.072   4.447  23.827  0.00  0.00    +0.255 HD
ATOM      9 HH12 ARG A   1      14.596   4.059  22.871  0.00  0.00    +0.255 HD
ENDROOT
BRANCH   1  10
ATOM     10  CD  ARG A   1      12.190   4.269  23.519  0.00  0.00    +0.174 C 
BRANCH  10  11
ATOM     11  CG  ARG A   1      10.778   3.874  24.080  0.00  0.00    +0.045 C 
BRANCH  11  12
ATOM     12  CB  ARG A   1       9.784   3.631  22.860  0.00  0.00    +0.029 C 
BRANCH  12  13
ATOM     13  CA  ARG A   1       8.483   3.024  23.439  0.00  0.00    +0.133 C 
BRANCH  13  14
ATOM     14  N   ARG A   1       8.735   1.658  23.763  0.00  0.00    -0.239 NA
ATOM     15  H   ARG A   1       9.656   1.225  23.548  0.00  0.00    +0.142 HD
ENDBRANCH  13  14
BRANCH  13  16
ATOM     16  C   ARG A   1       7.375   3.131  22.385  0.00  0.00    +0.224 C 
ATOM     17  O   ARG A   1       6.501   4.027  22.572  0.00  0.00    -0.287 OA
ENDBRANCH  13  16
ENDBRANCH  12  13
ENDBRANCH  11  12
ENDBRANCH  10  11
ENDBRANCH   1  10
TORSDOF 6
REMARK  Name = ../refined-set-2016/3td4/3td4_pocket.pdb
REMARK  111 active torsions:
REMARK  status: ('A' for Active; 'I' for Inactive)
REMARK    1  A    between atoms: _1  and  _3
REMARK    2  A    between atoms: _3  and  _4
REMARK    3  A    between atoms: _3  and  _6
REMARK    4  A    between atoms: _6  and  _7
REMARK    5  A    between atoms: _13  and  _15
REMARK    6  A    between atoms: _15  and  _16
REMARK    7  A    between atoms: _15  and  _18
REMARK    8  A    between atoms: _18  and  _19
REMARK    9  A    between atoms: _22  and  _24
REMARK   10  A    between atoms: _24  and  _25
REMARK   11  A    between atoms: _24  and  _27
REMARK   12  A    between atoms: _27  and  _28
REMARK   13  A    between atoms: _31  and  _33
REMARK   14  A    between atoms: _33  and  _34
REMARK   15  A    between atoms: _33  and  _36
REMARK   16  A    between atoms: _36  and  _37
REMARK   17  A    between atoms: _42  and  _44
REMARK   18  A    between atoms: _44  and  _45
REMARK   19  A    between atoms: _44  and  _47
REMARK   20  A    between atoms: _47  and  _48
REMARK   21  A    between atoms: _48  and  _49
REMARK   22  A    between atoms: _49  and  _50
REMARK   23  A    between atoms: _50  and  _51
REMARK   24  A    between atoms: _55  and  _57
REMARK   25  A    between atoms: _57  and  _58
REMARK   26  A    between atoms: _57  and  _60
REMARK   27  A    between atoms: _60  and  _61
REMARK   28  A    between atoms: _63  and  _65
REMARK   29  A    between atoms: _65  and  _66
REMARK   30  A    between atoms: _65  and  _68
REMARK   31  A    between atoms: _68  and  _69
REMARK   32  A    between atoms: _74  and  _76
REMARK   33  A    between atoms: _76  and  _77
REMARK   34  A    between atoms: _76  and  _79
REMARK   35  A    between atoms: _79  and  _80
REMARK   36  A    between atoms: _83  and  _85
REMARK   37  A    between atoms: _85  and  _86
REMARK   38  A    between atoms: _85  and  _88
REMARK   39  A    between atoms: _88  and  _89
REMARK   40  A    between atoms: _92  and  _94
REMARK   41  A    between atoms: _94  and  _95
REMARK   42  A    between atoms: _94  and  _97
REMARK   43  A    between atoms: _97  and  _98
REMARK   44  A    between atoms: _103  and  _105
REMARK   45  A    between atoms: _105  and  _106
REMARK   46  A    between atoms: _105  and  _108
REMARK   47  A    between atoms: _108  and  _109
REMARK   48  A    between atoms: _112  and  _114
REMARK   49  A    between atoms: _114  and  _115
REMARK   50  A    between atoms: _118  and  _119
REMARK   51  A    between atoms: _124  and  _126
REMARK   52  A    between atoms: _126  and  _127
REMARK   53  A    between atoms: _126  and  _129
REMARK   54  A    between atoms: _129  and  _130
REMARK   55  A    between atoms: _133  and  _135
REMARK   56  A    between atoms: _135  and  _136
REMARK   57  A    between atoms: _135  and  _138
REMARK   58  A    between atoms: _138  and  _139
REMARK   59  A    between atoms: _144  and  _146
REMARK   60  A    between atoms: _146  and  _147
REMARK   61  A    between atoms: _146  and  _149
REMARK   62  A    between atoms: _149  and  _150
REMARK   63  A    between atoms: _150  and  _151
REMARK   64  A    between atoms: _154  and  _156
REMARK   65  A    between atoms: _156  and  _157
REMARK   66  A    between atoms: _156  and  _159
REMARK   67  A    between atoms: _159  and  _160
REMARK   68  A    between atoms: _163  and  _165
REMARK   69  A    between atoms: _165  and  _166
REMARK   70  A    between atoms: _165  and  _168
REMARK   71  A    between atoms: _168  and  _169
REMARK   72  A    between atoms: _171  and  _173
REMARK   73  A    between atoms: _173  and  _174
REMARK   74  A    between atoms: _173  and  _176
REMARK   75  A    between atoms: _176  and  _177
REMARK   76  A    between atoms: _177  and  _178
REMARK   77  A    between atoms: _178  and  _179
REMARK   78  A    between atoms: _188  and  _190
REMARK   79  A    between atoms: _190  and  _191
REMARK   80  A    between atoms: _194  and  _196
REMARK   81  A    between atoms: _196  and  _197
REMARK   82  A    between atoms: _196  and  _199
REMARK   83  A    between atoms: _199  and  _200
REMARK   84  A    between atoms: _210  and  _212
REMARK   85  A    between atoms: _212  and  _213
REMARK   86  A    between atoms: _212  and  _215
REMARK   87  A    between atoms: _215  and  _216
REMARK   88  A    between atoms: _221  and  _223
REMARK   89  A    between atoms: _223  and  _224
REMARK   90  A    between atoms: _223  and  _226
REMARK   91  A    between atoms: _226  and  _227
REMARK   92  A    between atoms: _227  and  _228
REMARK   93  A    between atoms: _228  and  _229
REMARK   94  A    between atoms: _238  and  _240
REMARK   95  A    between atoms: _240  and  _241
REMARK   96  A    between atoms: _244  and  _246
REMARK   97  A    between atoms: _246  and  _247
REMARK   98  A    between atoms: _246  and  _249
REMARK   99  A    between atoms: _249  and  _250
REMARK  100  A    between atoms: _255  and  _257
REMARK  101  A    between atoms: _257  and  _258
REMARK  102  A    between atoms: _257  and  _260
REMARK  103  A    between atoms: _260  and  _261
REMARK  104  A    between atoms: _261  and  _262
REMARK  105  A    between atoms: _262  and  _263
REMARK  106  A    between atoms: _272  and  _274
REMARK  107  A    between atoms: _274  and  _275
REMARK  108  A    between atoms: _274  and  _277
REMARK  109  A    between atoms: _277  and  _278
REMARK  110  A    between atoms: _278  and  _279
REMARK  111  A    between atoms: _279  and  _280
REMARK                            x       y       z     vdW  Elec       q    Type
REMARK                         _______ _______ _______ _____ _____    ______ ____
ROOT
ATOM      1  CA  TRP A   2      19.677   0.648  17.920  0.00  0.00    +0.141 C 
ENDROOT
BRANCH   1   3
ATOM      2  C   ALA A   1      17.441  -0.165  18.511  0.00  0.00    +0.238 C 
ATOM      3  N   TRP A   2      18.763  -0.413  18.343  0.00  0.00    -0.298 N 
ATOM      4  H   TRP A   2      19.132  -1.370  18.517  0.00  0.00    +0.150 HD
ATOM      5  O   ALA A   1      16.902   0.890  18.212  0.00  0.00    -0.274 OA
BRANCH   2   6
ATOM      6  CA  ALA A   1      16.550  -1.272  19.008  0.00  0.00    +0.145 C 
ATOM      7  CB  ALA A   1      17.344  -2.568  19.199  0.00  0.00    +0.028 C 
BRANCH   6   8
ATOM      8  N   ALA A   1      15.430  -1.493  18.066  0.00  0.00    -0.238 NA
ATOM      9  H   ALA A   1      14.494  -1.692  18.473  0.00  0.00    +0.142 HD
ENDBRANCH   6   8
ENDBRANCH   2   6
ENDBRANCH   1   3
BRANCH   1  10
ATOM     10  C   TRP A   2      20.002   0.601  16.446  0.00  0.00    +0.227 C 
ATOM     11  O   TRP A   2      20.959   1.225  15.971  0.00  0.00    -0.286 OA
ENDBRANCH   1  10
BRANCH   1  12
ATOM     12  CB  TRP A   2      20.920   0.627  18.797  0.00  0.00    +0.056 C 
BRANCH  12  13
ATOM     13  CG  TRP A   2      21.701  -0.737  18.674  0.00  0.00    -0.002 A 
ATOM     14  CD2 TRP A   2      22.166  -1.560  19.762  0.00  0.00    +0.013 A 
ATOM     15  CE3 TRP A   2      22.002  -1.502  21.135  0.00  0.00    +0.001 A 
ATOM     16  CZ3 TRP A   2      22.618  -2.504  21.924  0.00  0.00    +0.000 A 
ATOM     17  CH2 TRP A   2      23.336  -3.603  21.313  0.00  0.00    +0.001 A 
ATOM     18  CZ2 TRP A   2      23.490  -3.713  19.981  0.00  0.00    +0.017 A 
ATOM     19  CE2 TRP A   2      22.894  -2.665  19.193  0.00  0.00    +0.056 A 
ATOM     20  NE1 TRP A   2      22.863  -2.502  17.838  0.00  0.00    -0.352 N 
ATOM     21  HE1 TRP A   2      23.259  -3.166  17.143  0.00  0.00    +0.166 HD
ATOM     22  CD1 TRP A   2      22.209  -1.291  17.528  0.00  0.00    +0.068 A 
ENDBRANCH  12  13
ENDBRANCH   1  12
TORSDOF 6
REMARK  Name = ../refined-set-2016/3td4/3td4_pocket.pdb
REMARK  111 active torsions:
REMARK  status: ('A' for Active; 'I' for Inactive)
REMARK    1  A    between atoms: _1  and  _3
REMARK    2  A    between atoms: _3  and  _4
REMARK    3  A    between atoms: _3  and  _6
REMARK    4  A    between atoms: _6  and  _7
REMARK    5  A    between atoms: _13  and  _15
REMARK    6  A    between atoms: _15  and  _16
REMARK    7  A    between atoms: _15  and  _18
REMARK    8  A    between atoms: _18  and  _19
REMARK    9  A    between atoms: _22  and  _24
REMARK   10  A    between atoms: _24  and  _25
REMARK   11  A    between atoms: _24  and  _27
REMARK   12  A    between atoms: _27  and  _28
REMARK   13  A    between atoms: _31  and  _33
REMARK   14  A    between atoms: _33  and  _34
REMARK   15  A    between atoms: _33  and  _36
REMARK   16  A    between atoms: _36  and  _37
REMARK   17  A    between atoms: _42  and  _44
REMARK   18  A    between atoms: _44  and  _45
REMARK   19  A    between atoms: _44  and  _47
REMARK   20  A    between atoms: _47  and  _48
REMARK   21  A    between atoms: _48  and  _49
REMARK   22  A    between atoms: _49  and  _50
REMARK   23  A    between atoms: _50  and  _51
REMARK   24  A    between atoms: _55  and  _57
REMARK   25  A    between atoms: _57  and  _58
REMARK   26  A    between atoms: _57  and  _60
REMARK   27  A    between atoms: _60  and  _61
REMARK   28  A    between atoms: _63  and  _65
REMARK   29  A    between atoms: _65  and  _66
REMARK   30  A    between atoms: _65  and  _68
REMARK   31  A    between atoms: _68  and  _69
REMARK   32  A    between atoms: _74  and  _76
REMARK   33  A    between atoms: _76  and  _77
REMARK   34  A    between atoms: _76  and  _79
REMARK   35  A    between atoms: _79  and  _80
REMARK   36  A    between atoms: _83  and  _85
REMARK   37  A    between atoms: _85  and  _86
REMARK   38  A    between atoms: _85  and  _88
REMARK   39  A    between atoms: _88  and  _89
REMARK   40  A    between atoms: _92  and  _94
REMARK   41  A    between atoms: _94  and  _95
REMARK   42  A    between atoms: _94  and  _97
REMARK   43  A    between atoms: _97  and  _98
REMARK   44  A    between atoms: _103  and  _105
REMARK   45  A    between atoms: _105  and  _106
REMARK   46  A    between atoms: _105  and  _108
REMARK   47  A    between atoms: _108  and  _109
REMARK   48  A    between atoms: _112  and  _114
REMARK   49  A    between atoms: _114  and  _115
REMARK   50  A    between atoms: _118  and  _119
REMARK   51  A    between atoms: _124  and  _126
REMARK   52  A    between atoms: _126  and  _127
REMARK   53  A    between atoms: _126  and  _129
REMARK   54  A    between atoms: _129  and  _130
REMARK   55  A    between atoms: _133  and  _135
REMARK   56  A    between atoms: _135  and  _136
REMARK   57  A    between atoms: _135  and  _138
REMARK   58  A    between atoms: _138  and  _139
REMARK   59  A    between atoms: _144  and  _146
REMARK   60  A    between atoms: _146  and  _147
REMARK   61  A    between atoms: _146  and  _149
REMARK   62  A    between atoms: _149  and  _150
REMARK   63  A    between atoms: _150  and  _151
REMARK   64  A    between atoms: _154  and  _156
REMARK   65  A    between atoms: _156  and  _157
REMARK   66  A    between atoms: _156  and  _159
REMARK   67  A    between atoms: _159  and  _160
REMARK   68  A    between atoms: _163  and  _165
REMARK   69  A    between atoms: _165  and  _166
REMARK   70  A    between atoms: _165  and  _168
REMARK   71  A    between atoms: _168  and  _169
REMARK   72  A    between atoms: _171  and  _173
REMARK   73  A    between atoms: _173  and  _174
REMARK   74  A    between atoms: _173  and  _176
REMARK   75  A    between atoms: _176  and  _177
REMARK   76  A    between atoms: _177  and  _178
REMARK   77  A    between atoms: _178  and  _179
REMARK   78  A    between atoms: _188  and  _190
REMARK   79  A    between atoms: _190  and  _191
REMARK   80  A    between atoms: _194  and  _196
REMARK   81  A    between atoms: _196  and  _197
REMARK   82  A    between atoms: _196  and  _199
REMARK   83  A    between atoms: _199  and  _200
REMARK   84  A    between atoms: _210  and  _212
REMARK   85  A    between atoms: _212  and  _213
REMARK   86  A    between atoms: _212  and  _215
REMARK   87  A    between atoms: _215  and  _216
REMARK   88  A    between atoms: _221  and  _223
REMARK   89  A    between atoms: _223  and  _224
REMARK   90  A    between atoms: _223  and  _226
REMARK   91  A    between atoms: _226  and  _227
REMARK   92  A    between atoms: _227  and  _228
REMARK   93  A    between atoms: _228  and  _229
REMARK   94  A    between atoms: _238  and  _240
REMARK   95  A    between atoms: _240  and  _241
REMARK   96  A    between atoms: _244  and  _246
REMARK   97  A    between atoms: _246  and  _247
REMARK   98  A    between atoms: _246  and  _249
REMARK   99  A    between atoms: _249  and  _250
REMARK  100  A    between atoms: _255  and  _257
REMARK  101  A    between atoms: _257  and  _258
REMARK  102  A    between atoms: _257  and  _260
REMARK  103  A    between atoms: _260  and  _261
REMARK  104  A    between atoms: _261  and  _262
REMARK  105  A    between atoms: _262  and  _263
REMARK  106  A    between atoms: _272  and  _274
REMARK  107  A    between atoms: _274  and  _275
REMARK  108  A    between atoms: _274  and  _277
REMARK  109  A    between atoms: _277  and  _278
REMARK  110  A    between atoms: _278  and  _279
REMARK  111  A    between atoms: _279  and  _280
REMARK                            x       y       z     vdW  Elec       q    Type
REMARK                         _______ _______ _______ _____ _____    ______ ____
ROOT
ATOM      1  CB  ASN A   1      25.593   6.220  19.303  0.00  0.00    +0.110 C 
ENDROOT
BRANCH   1   2
ATOM      2  CG  ASN A   1      24.160   5.757  19.032  0.00  0.00    +0.221 C 
ATOM      3  ND2 ASN A   1      23.316   6.076  19.932  0.00  0.00    -0.329 N 
ATOM      4 HD21 ASN A   1      23.619   6.638  20.753  0.00  0.00    +0.145 HD
ATOM      5 HD22 ASN A   1      22.324   5.774  19.845  0.00  0.00    +0.145 HD
ATOM      6  OD1 ASN A   1      23.866   5.069  17.994  0.00  0.00    -0.275 OA
ENDBRANCH   1   2
BRANCH   1   7
ATOM      7  CA  ASN A   1      25.695   7.750  19.402  0.00  0.00    +0.142 C 
BRANCH   7   8
ATOM      8  N   ASN A   1      25.795   8.343  18.079  0.00  0.00    -0.239 NA
ATOM      9  H   ASN A   1      26.010   7.762  17.244  0.00  0.00    +0.142 HD
ENDBRANCH   7   8
BRANCH   7  10
ATOM     10  C   ASN A   1      26.897   8.067  20.357  0.00  0.00    +0.225 C 
ATOM     11  O   ASN A   1      26.836   7.750  21.550  0.00  0.00    -0.287 OA
ENDBRANCH   7  10
ENDBRANCH   1   7
TORSDOF 4
REMARK  Name = ../refined-set-2016/3td4/3td4_pocket.pdb
REMARK  111 active torsions:
REMARK  status: ('A' for Active; 'I' for Inactive)
REMARK    1  A    between atoms: _1  and  _3
REMARK    2  A    between atoms: _3  and  _4
REMARK    3  A    between atoms: _3  and  _6
REMARK    4  A    between atoms: _6  and  _7
REMARK    5  A    between atoms: _13  and  _15
REMARK    6  A    between atoms: _15  and  _16
REMARK    7  A    between atoms: _15  and  _18
REMARK    8  A    between atoms: _18  and  _19
REMARK    9  A    between atoms: _22  and  _24
REMARK   10  A    between atoms: _24  and  _25
REMARK   11  A    between atoms: _24  and  _27
REMARK   12  A    between atoms: _27  and  _28
REMARK   13  A    between atoms: _31  and  _33
REMARK   14  A    between atoms: _33  and  _34
REMARK   15  A    between atoms: _33  and  _36
REMARK   16  A    between atoms: _36  and  _37
REMARK   17  A    between atoms: _42  and  _44
REMARK   18  A    between atoms: _44  and  _45
REMARK   19  A    between atoms: _44  and  _47
REMARK   20  A    between atoms: _47  and  _48
REMARK   21  A    between atoms: _48  and  _49
REMARK   22  A    between atoms: _49  and  _50
REMARK   23  A    between atoms: _50  and  _51
REMARK   24  A    between atoms: _55  and  _57
REMARK   25  A    between atoms: _57  and  _58
REMARK   26  A    between atoms: _57  and  _60
REMARK   27  A    between atoms: _60  and  _61
REMARK   28  A    between atoms: _63  and  _65
REMARK   29  A    between atoms: _65  and  _66
REMARK   30  A    between atoms: _65  and  _68
REMARK   31  A    between atoms: _68  and  _69
REMARK   32  A    between atoms: _74  and  _76
REMARK   33  A    between atoms: _76  and  _77
REMARK   34  A    between atoms: _76  and  _79
REMARK   35  A    between atoms: _79  and  _80
REMARK   36  A    between atoms: _83  and  _85
REMARK   37  A    between atoms: _85  and  _86
REMARK   38  A    between atoms: _85  and  _88
REMARK   39  A    between atoms: _88  and  _89
REMARK   40  A    between atoms: _92  and  _94
REMARK   41  A    between atoms: _94  and  _95
REMARK   42  A    between atoms: _94  and  _97
REMARK   43  A    between atoms: _97  and  _98
REMARK   44  A    between atoms: _103  and  _105
REMARK   45  A    between atoms: _105  and  _106
REMARK   46  A    between atoms: _105  and  _108
REMARK   47  A    between atoms: _108  and  _109
REMARK   48  A    between atoms: _112  and  _114
REMARK   49  A    between atoms: _114  and  _115
REMARK   50  A    between atoms: _118  and  _119
REMARK   51  A    between atoms: _124  and  _126
REMARK   52  A    between atoms: _126  and  _127
REMARK   53  A    between atoms: _126  and  _129
REMARK   54  A    between atoms: _129  and  _130
REMARK   55  A    between atoms: _133  and  _135
REMARK   56  A    between atoms: _135  and  _136
REMARK   57  A    between atoms: _135  and  _138
REMARK   58  A    between atoms: _138  and  _139
REMARK   59  A    between atoms: _144  and  _146
REMARK   60  A    between atoms: _146  and  _147
REMARK   61  A    between atoms: _146  and  _149
REMARK   62  A    between atoms: _149  and  _150
REMARK   63  A    between atoms: _150  and  _151
REMARK   64  A    between atoms: _154  and  _156
REMARK   65  A    between atoms: _156  and  _157
REMARK   66  A    between atoms: _156  and  _159
REMARK   67  A    between atoms: _159  and  _160
REMARK   68  A    between atoms: _163  and  _165
REMARK   69  A    between atoms: _165  and  _166
REMARK   70  A    between atoms: _165  and  _168
REMARK   71  A    between atoms: _168  and  _169
REMARK   72  A    between atoms: _171  and  _173
REMARK   73  A    between atoms: _173  and  _174
REMARK   74  A    between atoms: _173  and  _176
REMARK   75  A    between atoms: _176  and  _177
REMARK   76  A    between atoms: _177  and  _178
REMARK   77  A    between atoms: _178  and  _179
REMARK   78  A    between atoms: _188  and  _190
REMARK   79  A    between atoms: _190  and  _191
REMARK   80  A    between atoms: _194  and  _196
REMARK   81  A    between atoms: _196  and  _197
REMARK   82  A    between atoms: _196  and  _199
REMARK   83  A    between atoms: _199  and  _200
REMARK   84  A    between atoms: _210  and  _212
REMARK   85  A    between atoms: _212  and  _213
REMARK   86  A    between atoms: _212  and  _215
REMARK   87  A    between atoms: _215  and  _216
REMARK   88  A    between atoms: _221  and  _223
REMARK   89  A    between atoms: _223  and  _224
REMARK   90  A    between atoms: _223  and  _226
REMARK   91  A    between atoms: _226  and  _227
REMARK   92  A    between atoms: _227  and  _228
REMARK   93  A    between atoms: _228  and  _229
REMARK   94  A    between atoms: _238  and  _240
REMARK   95  A    between atoms: _240  and  _241
REMARK   96  A    between atoms: _244  and  _246
REMARK   97  A    between atoms: _246  and  _247
REMARK   98  A    between atoms: _246  and  _249
REMARK   99  A    between atoms: _249  and  _250
REMARK  100  A    between atoms: _255  and  _257
REMARK  101  A    between atoms: _257  and  _258
REMARK  102  A    between atoms: _257  and  _260
REMARK  103  A    between atoms: _260  and  _261
REMARK  104  A    between atoms: _261  and  _262
REMARK  105  A    between atoms: _262  and  _263
REMARK  106  A    between atoms: _272  and  _274
REMARK  107  A    between atoms: _274  and  _275
REMARK  108  A    between atoms: _274  and  _277
REMARK  109  A    between atoms: _277  and  _278
REMARK  110  A    between atoms: _278  and  _279
REMARK  111  A    between atoms: _279  and  _280
REMARK                            x       y       z     vdW  Elec       q    Type
REMARK                         _______ _______ _______ _____ _____    ______ ____
ROOT
ATOM      1  CB  ARG A   1      22.716   9.013  23.163  0.00  0.00    +0.030 C 
ENDROOT
BRANCH   1   2
ATOM      2  CA  ARG A   1      21.970   9.526  21.903  0.00  0.00    +0.145 C 
BRANCH   2   3
ATOM      3  C   ARG A   1      20.568   9.943  22.272  0.00  0.00    +0.238 C 
ATOM      4  N   ALA A   2      20.356  11.204  22.674  0.00  0.00    -0.298 N 
ATOM      5  H   ALA A   2      21.162  11.859  22.732  0.00  0.00    +0.150 HD
ATOM      6  O   ARG A   1      19.683   9.159  22.041  0.00  0.00    -0.274 OA
BRANCH   4   7
ATOM      7  CA  ALA A   2      19.001  11.691  23.039  0.00  0.00    +0.137 C 
ATOM      8  CB  ALA A   2      19.098  13.087  23.596  0.00  0.00    +0.030 C 
BRANCH   7   9
ATOM      9  C   ALA A   2      18.052  11.675  21.746  0.00  0.00    +0.227 C 
ATOM     10  O   ALA A   2      16.887  11.312  21.822  0.00  0.00    -0.286 OA
ENDBRANCH   7   9
ENDBRANCH   4   7
ENDBRANCH   2   3
BRANCH   2  11
ATOM     11  N   ARG A   1      22.656  10.641  21.259  0.00  0.00    -0.238 NA
ATOM     12  H   ARG A   1      23.507  11.042  21.703  0.00  0.00    +0.142 HD
ENDBRANCH   2  11
ENDBRANCH   1   2
BRANCH   1  13
ATOM     13  CG  ARG A   1      23.901   8.211  22.717  0.00  0.00    +0.045 C 
BRANCH  13  14
ATOM     14  CD  ARG A   1      24.596   7.519  23.937  0.00  0.00    +0.174 C 
BRANCH  14  15
ATOM     15  NE  ARG A   1      25.007   8.434  25.008  0.00  0.00    -0.265 N 
ATOM     16  HE  ARG A   1      24.299   8.650  25.739  0.00  0.00    +0.259 HD
ATOM     17  CZ  ARG A   1      26.199   9.015  25.134  0.00  0.00    +0.342 C 
ATOM     18  NH2 ARG A   1      26.433   9.730  26.243  0.00  0.00    -0.292 N 
ATOM     19 HH21 ARG A   1      25.695   9.817  26.971  0.00  0.00    +0.255 HD
ATOM     20 HH22 ARG A   1      27.352  10.198  26.376  0.00  0.00    +0.255 HD
ATOM     21  NH1 ARG A   1      27.113   8.931  24.187  0.00  0.00    -0.292 N 
ATOM     22 HH11 ARG A   1      28.036   9.395  24.312  0.00  0.00    +0.255 HD
ATOM     23 HH12 ARG A   1      26.911   8.401  23.315  0.00  0.00    +0.255 HD
ENDBRANCH  14  15
ENDBRANCH  13  14
ENDBRANCH   1  13
TORSDOF 8
REMARK  Name = ../refined-set-2016/3td4/3td4_pocket.pdb
REMARK  111 active torsions:
REMARK  status: ('A' for Active; 'I' for Inactive)
REMARK    1  A    between atoms: _1  and  _3
REMARK    2  A    between atoms: _3  and  _4
REMARK    3  A    between atoms: _3  and  _6
REMARK    4  A    between atoms: _6  and  _7
REMARK    5  A    between atoms: _13  and  _15
REMARK    6  A    between atoms: _15  and  _16
REMARK    7  A    between atoms: _15  and  _18
REMARK    8  A    between atoms: _18  and  _19
REMARK    9  A    between atoms: _22  and  _24
REMARK   10  A    between atoms: _24  and  _25
REMARK   11  A    between atoms: _24  and  _27
REMARK   12  A    between atoms: _27  and  _28
REMARK   13  A    between atoms: _31  and  _33
REMARK   14  A    between atoms: _33  and  _34
REMARK   15  A    between atoms: _33  and  _36
REMARK   16  A    between atoms: _36  and  _37
REMARK   17  A    between atoms: _42  and  _44
REMARK   18  A    between atoms: _44  and  _45
REMARK   19  A    between atoms: _44  and  _47
REMARK   20  A    between atoms: _47  and  _48
REMARK   21  A    between atoms: _48  and  _49
REMARK   22  A    between atoms: _49  and  _50
REMARK   23  A    between atoms: _50  and  _51
REMARK   24  A    between atoms: _55  and  _57
REMARK   25  A    between atoms: _57  and  _58
REMARK   26  A    between atoms: _57  and  _60
REMARK   27  A    between atoms: _60  and  _61
REMARK   28  A    between atoms: _63  and  _65
REMARK   29  A    between atoms: _65  and  _66
REMARK   30  A    between atoms: _65  and  _68
REMARK   31  A    between atoms: _68  and  _69
REMARK   32  A    between atoms: _74  and  _76
REMARK   33  A    between atoms: _76  and  _77
REMARK   34  A    between atoms: _76  and  _79
REMARK   35  A    between atoms: _79  and  _80
REMARK   36  A    between atoms: _83  and  _85
REMARK   37  A    between atoms: _85  and  _86
REMARK   38  A    between atoms: _85  and  _88
REMARK   39  A    between atoms: _88  and  _89
REMARK   40  A    between atoms: _92  and  _94
REMARK   41  A    between atoms: _94  and  _95
REMARK   42  A    between atoms: _94  and  _97
REMARK   43  A    between atoms: _97  and  _98
REMARK   44  A    between atoms: _103  and  _105
REMARK   45  A    between atoms: _105  and  _106
REMARK   46  A    between atoms: _105  and  _108
REMARK   47  A    between atoms: _108  and  _109
REMARK   48  A    between atoms: _112  and  _114
REMARK   49  A    between atoms: _114  and  _115
REMARK   50  A    between atoms: _118  and  _119
REMARK   51  A    between atoms: _124  and  _126
REMARK   52  A    between atoms: _126  and  _127
REMARK   53  A    between atoms: _126  and  _129
REMARK   54  A    between atoms: _129  and  _130
REMARK   55  A    between atoms: _133  and  _135
REMARK   56  A    between atoms: _135  and  _136
REMARK   57  A    between atoms: _135  and  _138
REMARK   58  A    between atoms: _138  and  _139
REMARK   59  A    between atoms: _144  and  _146
REMARK   60  A    between atoms: _146  and  _147
REMARK   61  A    between atoms: _146  and  _149
REMARK   62  A    between atoms: _149  and  _150
REMARK   63  A    between atoms: _150  and  _151
REMARK   64  A    between atoms: _154  and  _156
REMARK   65  A    between atoms: _156  and  _157
REMARK   66  A    between atoms: _156  and  _159
REMARK   67  A    between atoms: _159  and  _160
REMARK   68  A    between atoms: _163  and  _165
REMARK   69  A    between atoms: _165  and  _166
REMARK   70  A    between atoms: _165  and  _168
REMARK   71  A    between atoms: _168  and  _169
REMARK   72  A    between atoms: _171  and  _173
REMARK   73  A    between atoms: _173  and  _174
REMARK   74  A    between atoms: _173  and  _176
REMARK   75  A    between atoms: _176  and  _177
REMARK   76  A    between atoms: _177  and  _178
REMARK   77  A    between atoms: _178  and  _179
REMARK   78  A    between atoms: _188  and  _190
REMARK   79  A    between atoms: _190  and  _191
REMARK   80  A    between atoms: _194  and  _196
REMARK   81  A    between atoms: _196  and  _197
REMARK   82  A    between atoms: _196  and  _199
REMARK   83  A    between atoms: _199  and  _200
REMARK   84  A    between atoms: _210  and  _212
REMARK   85  A    between atoms: _212  and  _213
REMARK   86  A    between atoms: _212  and  _215
REMARK   87  A    between atoms: _215  and  _216
REMARK   88  A    between atoms: _221  and  _223
REMARK   89  A    between atoms: _223  and  _224
REMARK   90  A    between atoms: _223  and  _226
REMARK   91  A    between atoms: _226  and  _227
REMARK   92  A    between atoms: _227  and  _228
REMARK   93  A    between atoms: _228  and  _229
REMARK   94  A    between atoms: _238  and  _240
REMARK   95  A    between atoms: _240  and  _241
REMARK   96  A    between atoms: _244  and  _246
REMARK   97  A    between atoms: _246  and  _247
REMARK   98  A    between atoms: _246  and  _249
REMARK   99  A    between atoms: _249  and  _250
REMARK  100  A    between atoms: _255  and  _257
REMARK  101  A    between atoms: _257  and  _258
REMARK  102  A    between atoms: _257  and  _260
REMARK  103  A    between atoms: _260  and  _261
REMARK  104  A    between atoms: _261  and  _262
REMARK  105  A    between atoms: _262  and  _263
REMARK  106  A    between atoms: _272  and  _274
REMARK  107  A    between atoms: _274  and  _275
REMARK  108  A    between atoms: _274  and  _277
REMARK  109  A    between atoms: _277  and  _278
REMARK  110  A    between atoms: _278  and  _279
REMARK  111  A    between atoms: _279  and  _280
REMARK                            x       y       z     vdW  Elec       q    Type
REMARK                         _______ _______ _______ _____ _____    ______ ____
ROOT
ATOM      1  CA  ARG A   2      15.852   7.451  21.936  0.00  0.00    +0.149 C 
ENDROOT
BRANCH   1   2
ATOM      2  C   ARG A   2      14.498   8.062  21.536  0.00  0.00    +0.241 C 
ATOM      3  O   ARG A   2      14.129   9.119  22.043  0.00  0.00    -0.273 OA
ATOM      4  N   ARG A   3      13.817   7.406  20.595  0.00  0.00    -0.298 N 
ATOM      5  H   ARG A   3      14.076   6.437  20.320  0.00  0.00    +0.150 HD
BRANCH   4   6
ATOM      6  CA  ARG A   3      12.678   8.107  19.956  0.00  0.00    +0.137 C 
BRANCH   6   7
ATOM      7  C   ARG A   3      11.609   7.099  19.501  0.00  0.00    +0.227 C 
ATOM      8  O   ARG A   3      11.869   5.897  19.244  0.00  0.00    -0.286 OA
ENDBRANCH   6   7
BRANCH   6   9
ATOM      9  CB  ARG A   3      13.150   8.862  18.698  0.00  0.00    +0.031 C 
BRANCH   9  10
ATOM     10  CG  ARG A   3      13.474   7.911  17.530  0.00  0.00    +0.045 C 
BRANCH  10  11
ATOM     11  CD  ARG A   3      14.358   8.627  16.464  0.00  0.00    +0.174 C 
BRANCH  11  12
ATOM     12  NE  ARG A   3      14.456   7.827  15.272  0.00  0.00    -0.265 N 
ATOM     13  CZ  ARG A   3      15.334   6.868  15.079  0.00  0.00    +0.342 C 
ATOM     14  NH2 ARG A   3      16.317   6.579  16.064  0.00  0.00    -0.292 N 
ATOM     15 HH21 ARG A   3      16.346   7.128  16.947  0.00  0.00    +0.255 HD
ATOM     16 HH22 ARG A   3      17.007   5.818  15.902  0.00  0.00    +0.255 HD
ATOM     17  NH1 ARG A   3      15.254   6.191  13.892  0.00  0.00    -0.292 N 
ATOM     18 HH11 ARG A   3      15.923   5.422  13.686  0.00  0.00    +0.255 HD
ATOM     19 HH12 ARG A   3      14.524   6.445  13.196  0.00  0.00    +0.255 HD
ATOM     20  HE  ARG A   3      13.781   8.022  14.505  0.00  0.00    +0.259 HD
ENDBRANCH  11  12
ENDBRANCH  10  11
ENDBRANCH   9  10
ENDBRANCH   6   9
ENDBRANCH   4   6
ENDBRANCH   1   2
BRANCH   1  22
ATOM     21  C   ASN A   1      17.036   7.510  19.741  0.00  0.00    +0.239 C 
ATOM     22  N   ARG A   2      16.842   8.022  20.940  0.00  0.00    -0.297 N 
ATOM     23  H   ARG A   2      17.395   8.858  21.216  0.00  0.00    +0.150 HD
ATOM     24  O   ASN A   1      16.463   6.539  19.316  0.00  0.00    -0.274 OA
BRANCH  21  25
ATOM     25  CA  ASN A   1      18.092   8.207  18.860  0.00  0.00    +0.154 C 
BRANCH  25  26
ATOM     26  N   ASN A   1      18.354   9.580  19.315  0.00  0.00    -0.238 NA
ATOM     27  H   ASN A   1      19.170   9.789  19.925  0.00  0.00    +0.142 HD
ENDBRANCH  25  26
BRANCH  25  28
ATOM     28  CB  ASN A   1      19.393   7.386  18.936  0.00  0.00    +0.111 C 
BRANCH  28  29
ATOM     29  CG  ASN A   1      20.355   7.770  17.749  0.00  0.00    +0.221 C 
ATOM     30  ND2 ASN A   1      21.663   7.597  17.917  0.00  0.00    -0.329 N 
ATOM     31 HD21 ASN A   1      22.023   7.173  18.796  0.00  0.00    +0.145 HD
ATOM     32 HD22 ASN A   1      22.326   7.886  17.169  0.00  0.00    +0.145 HD
ATOM     33  OD1 ASN A   1      19.890   8.256  16.750  0.00  0.00    -0.275 OA
ENDBRANCH  28  29
ENDBRANCH  25  28
ENDBRANCH  21  25
ENDBRANCH   1  22
BRANCH   1  34
ATOM     34  CB  ARG A   2      16.209   7.949  23.351  0.00  0.00    +0.033 C 
BRANCH  34  35
ATOM     35  CG  ARG A   2      17.459   7.129  23.858  0.00  0.00    +0.045 C 
BRANCH  35  36
ATOM     36  CD  ARG A   2      17.610   7.388  25.309  0.00  0.00    +0.174 C 
BRANCH  36  37
ATOM     37  NE  ARG A   2      17.737   8.790  25.687  0.00  0.00    -0.265 N 
ATOM     38  HE  ARG A   2      16.858   9.318  25.862  0.00  0.00    +0.259 HD
ATOM     39  CZ  ARG A   2      18.893   9.457  25.828  0.00  0.00    +0.342 C 
ATOM     40  NH2 ARG A   2      18.849  10.726  26.309  0.00  0.00    -0.292 N 
ATOM     41 HH21 ARG A   2      17.935  11.157  26.557  0.00  0.00    +0.255 HD
ATOM     42 HH22 ARG A   2      19.729  11.267  26.429  0.00  0.00    +0.255 HD
ATOM     43  NH1 ARG A   2      20.073   8.877  25.571  0.00  0.00    -0.292 N 
ATOM     44 HH11 ARG A   2      20.954   9.417  25.688  0.00  0.00    +0.255 HD
ATOM     45 HH12 ARG A   2      20.108   7.887  25.254  0.00  0.00    +0.255 HD
ENDBRANCH  36  37
ENDBRANCH  35  36
ENDBRANCH  34  35
ENDBRANCH   1  34
TORSDOF 16
REMARK  Name = ../refined-set-2016/3td4/3td4_pocket.pdb
REMARK  111 active torsions:
REMARK  status: ('A' for Active; 'I' for Inactive)
REMARK    1  A    between atoms: _1  and  _3
REMARK    2  A    between atoms: _3  and  _4
REMARK    3  A    between atoms: _3  and  _6
REMARK    4  A    between atoms: _6  and  _7
REMARK    5  A    between atoms: _13  and  _15
REMARK    6  A    between atoms: _15  and  _16
REMARK    7  A    between atoms: _15  and  _18
REMARK    8  A    between atoms: _18  and  _19
REMARK    9  A    between atoms: _22  and  _24
REMARK   10  A    between atoms: _24  and  _25
REMARK   11  A    between atoms: _24  and  _27
REMARK   12  A    between atoms: _27  and  _28
REMARK   13  A    between atoms: _31  and  _33
REMARK   14  A    between atoms: _33  and  _34
REMARK   15  A    between atoms: _33  and  _36
REMARK   16  A    between atoms: _36  and  _37
REMARK   17  A    between atoms: _42  and  _44
REMARK   18  A    between atoms: _44  and  _45
REMARK   19  A    between atoms: _44  and  _47
REMARK   20  A    between atoms: _47  and  _48
REMARK   21  A    between atoms: _48  and  _49
REMARK   22  A    between atoms: _49  and  _50
REMARK   23  A    between atoms: _50  and  _51
REMARK   24  A    between atoms: _55  and  _57
REMARK   25  A    between atoms: _57  and  _58
REMARK   26  A    between atoms: _57  and  _60
REMARK   27  A    between atoms: _60  and  _61
REMARK   28  A    between atoms: _63  and  _65
REMARK   29  A    between atoms: _65  and  _66
REMARK   30  A    between atoms: _65  and  _68
REMARK   31  A    between atoms: _68  and  _69
REMARK   32  A    between atoms: _74  and  _76
REMARK   33  A    between atoms: _76  and  _77
REMARK   34  A    between atoms: _76  and  _79
REMARK   35  A    between atoms: _79  and  _80
REMARK   36  A    between atoms: _83  and  _85
REMARK   37  A    between atoms: _85  and  _86
REMARK   38  A    between atoms: _85  and  _88
REMARK   39  A    between atoms: _88  and  _89
REMARK   40  A    between atoms: _92  and  _94
REMARK   41  A    between atoms: _94  and  _95
REMARK   42  A    between atoms: _94  and  _97
REMARK   43  A    between atoms: _97  and  _98
REMARK   44  A    between atoms: _103  and  _105
REMARK   45  A    between atoms: _105  and  _106
REMARK   46  A    between atoms: _105  and  _108
REMARK   47  A    between atoms: _108  and  _109
REMARK   48  A    between atoms: _112  and  _114
REMARK   49  A    between atoms: _114  and  _115
REMARK   50  A    between atoms: _118  and  _119
REMARK   51  A    between atoms: _124  and  _126
REMARK   52  A    between atoms: _126  and  _127
REMARK   53  A    between atoms: _126  and  _129
REMARK   54  A    between atoms: _129  and  _130
REMARK   55  A    between atoms: _133  and  _135
REMARK   56  A    between atoms: _135  and  _136
REMARK   57  A    between atoms: _135  and  _138
REMARK   58  A    between atoms: _138  and  _139
REMARK   59  A    between atoms: _144  and  _146
REMARK   60  A    between atoms: _146  and  _147
REMARK   61  A    between atoms: _146  and  _149
REMARK   62  A    between atoms: _149  and  _150
REMARK   63  A    between atoms: _150  and  _151
REMARK   64  A    between atoms: _154  and  _156
REMARK   65  A    between atoms: _156  and  _157
REMARK   66  A    between atoms: _156  and  _159
REMARK   67  A    between atoms: _159  and  _160
REMARK   68  A    between atoms: _163  and  _165
REMARK   69  A    between atoms: _165  and  _166
REMARK   70  A    between atoms: _165  and  _168
REMARK   71  A    between atoms: _168  and  _169
REMARK   72  A    between atoms: _171  and  _173
REMARK   73  A    between atoms: _173  and  _174
REMARK   74  A    between atoms: _173  and  _176
REMARK   75  A    between atoms: _176  and  _177
REMARK   76  A    between atoms: _177  and  _178
REMARK   77  A    between atoms: _178  and  _179
REMARK   78  A    between atoms: _188  and  _190
REMARK   79  A    between atoms: _190  and  _191
REMARK   80  A    between atoms: _194  and  _196
REMARK   81  A    between atoms: _196  and  _197
REMARK   82  A    between atoms: _196  and  _199
REMARK   83  A    between atoms: _199  and  _200
REMARK   84  A    between atoms: _210  and  _212
REMARK   85  A    between atoms: _212  and  _213
REMARK   86  A    between atoms: _212  and  _215
REMARK   87  A    between atoms: _215  and  _216
REMARK   88  A    between atoms: _221  and  _223
REMARK   89  A    between atoms: _223  and  _224
REMARK   90  A    between atoms: _223  and  _226
REMARK   91  A    between atoms: _226  and  _227
REMARK   92  A    between atoms: _227  and  _228
REMARK   93  A    between atoms: _228  and  _229
REMARK   94  A    between atoms: _238  and  _240
REMARK   95  A    between atoms: _240  and  _241
REMARK   96  A    between atoms: _244  and  _246
REMARK   97  A    between atoms: _246  and  _247
REMARK   98  A    between atoms: _246  and  _249
REMARK   99  A    between atoms: _249  and  _250
REMARK  100  A    between atoms: _255  and  _257
REMARK  101  A    between atoms: _257  and  _258
REMARK  102  A    between atoms: _257  and  _260
REMARK  103  A    between atoms: _260  and  _261
REMARK  104  A    between atoms: _261  and  _262
REMARK  105  A    between atoms: _262  and  _263
REMARK  106  A    between atoms: _272  and  _274
REMARK  107  A    between atoms: _274  and  _275
REMARK  108  A    between atoms: _274  and  _277
REMARK  109  A    between atoms: _277  and  _278
REMARK  110  A    between atoms: _278  and  _279
REMARK  111  A    between atoms: _279  and  _280
REMARK                            x       y       z     vdW  Elec       q    Type
REMARK                         _______ _______ _______ _____ _____    ______ ____
ROOT
ATOM      1  O   HOH     1      15.805  11.804  24.126  0.00  0.00    +0.000 OA
ENDROOT
TORSDOF 0
REMARK  Name = ../refined-set-2016/3td4/3td4_pocket.pdb
REMARK  111 active torsions:
REMARK  status: ('A' for Active; 'I' for Inactive)
REMARK    1  A    between atoms: _1  and  _3
REMARK    2  A    between atoms: _3  and  _4
REMARK    3  A    between atoms: _3  and  _6
REMARK    4  A    between atoms: _6  and  _7
REMARK    5  A    between atoms: _13  and  _15
REMARK    6  A    between atoms: _15  and  _16
REMARK    7  A    between atoms: _15  and  _18
REMARK    8  A    between atoms: _18  and  _19
REMARK    9  A    between atoms: _22  and  _24
REMARK   10  A    between atoms: _24  and  _25
REMARK   11  A    between atoms: _24  and  _27
REMARK   12  A    between atoms: _27  and  _28
REMARK   13  A    between atoms: _31  and  _33
REMARK   14  A    between atoms: _33  and  _34
REMARK   15  A    between atoms: _33  and  _36
REMARK   16  A    between atoms: _36  and  _37
REMARK   17  A    between atoms: _42  and  _44
REMARK   18  A    between atoms: _44  and  _45
REMARK   19  A    between atoms: _44  and  _47
REMARK   20  A    between atoms: _47  and  _48
REMARK   21  A    between atoms: _48  and  _49
REMARK   22  A    between atoms: _49  and  _50
REMARK   23  A    between atoms: _50  and  _51
REMARK   24  A    between atoms: _55  and  _57
REMARK   25  A    between atoms: _57  and  _58
REMARK   26  A    between atoms: _57  and  _60
REMARK   27  A    between atoms: _60  and  _61
REMARK   28  A    between atoms: _63  and  _65
REMARK   29  A    between atoms: _65  and  _66
REMARK   30  A    between atoms: _65  and  _68
REMARK   31  A    between atoms: _68  and  _69
REMARK   32  A    between atoms: _74  and  _76
REMARK   33  A    between atoms: _76  and  _77
REMARK   34  A    between atoms: _76  and  _79
REMARK   35  A    between atoms: _79  and  _80
REMARK   36  A    between atoms: _83  and  _85
REMARK   37  A    between atoms: _85  and  _86
REMARK   38  A    between atoms: _85  and  _88
REMARK   39  A    between atoms: _88  and  _89
REMARK   40  A    between atoms: _92  and  _94
REMARK   41  A    between atoms: _94  and  _95
REMARK   42  A    between atoms: _94  and  _97
REMARK   43  A    between atoms: _97  and  _98
REMARK   44  A    between atoms: _103  and  _105
REMARK   45  A    between atoms: _105  and  _106
REMARK   46  A    between atoms: _105  and  _108
REMARK   47  A    between atoms: _108  and  _109
REMARK   48  A    between atoms: _112  and  _114
REMARK   49  A    between atoms: _114  and  _115
REMARK   50  A    between atoms: _118  and  _119
REMARK   51  A    between atoms: _124  and  _126
REMARK   52  A    between atoms: _126  and  _127
REMARK   53  A    between atoms: _126  and  _129
REMARK   54  A    between atoms: _129  and  _130
REMARK   55  A    between atoms: _133  and  _135
REMARK   56  A    between atoms: _135  and  _136
REMARK   57  A    between atoms: _135  and  _138
REMARK   58  A    between atoms: _138  and  _139
REMARK   59  A    between atoms: _144  and  _146
REMARK   60  A    between atoms: _146  and  _147
REMARK   61  A    between atoms: _146  and  _149
REMARK   62  A    between atoms: _149  and  _150
REMARK   63  A    between atoms: _150  and  _151
REMARK   64  A    between atoms: _154  and  _156
REMARK   65  A    between atoms: _156  and  _157
REMARK   66  A    between atoms: _156  and  _159
REMARK   67  A    between atoms: _159  and  _160
REMARK   68  A    between atoms: _163  and  _165
REMARK   69  A    between atoms: _165  and  _166
REMARK   70  A    between atoms: _165  and  _168
REMARK   71  A    between atoms: _168  and  _169
REMARK   72  A    between atoms: _171  and  _173
REMARK   73  A    between atoms: _173  and  _174
REMARK   74  A    between atoms: _173  and  _176
REMARK   75  A    between atoms: _176  and  _177
REMARK   76  A    between atoms: _177  and  _178
REMARK   77  A    between atoms: _178  and  _179
REMARK   78  A    between atoms: _188  and  _190
REMARK   79  A    between atoms: _190  and  _191
REMARK   80  A    between atoms: _194  and  _196
REMARK   81  A    between atoms: _196  and  _197
REMARK   82  A    between atoms: _196  and  _199
REMARK   83  A    between atoms: _199  and  _200
REMARK   84  A    between atoms: _210  and  _212
REMARK   85  A    between atoms: _212  and  _213
REMARK   86  A    between atoms: _212  and  _215
REMARK   87  A    between atoms: _215  and  _216
REMARK   88  A    between atoms: _221  and  _223
REMARK   89  A    between atoms: _223  and  _224
REMARK   90  A    between atoms: _223  and  _226
REMARK   91  A    between atoms: _226  and  _227
REMARK   92  A    between atoms: _227  and  _228
REMARK   93  A    between atoms: _228  and  _229
REMARK   94  A    between atoms: _238  and  _240
REMARK   95  A    between atoms: _240  and  _241
REMARK   96  A    between atoms: _244  and  _246
REMARK   97  A    between atoms: _246  and  _247
REMARK   98  A    between atoms: _246  and  _249
REMARK   99  A    between atoms: _249  and  _250
REMARK  100  A    between atoms: _255  and  _257
REMARK  101  A    between atoms: _257  and  _258
REMARK  102  A    between atoms: _257  and  _260
REMARK  103  A    between atoms: _260  and  _261
REMARK  104  A    between atoms: _261  and  _262
REMARK  105  A    between atoms: _262  and  _263
REMARK  106  A    between atoms: _272  and  _274
REMARK  107  A    between atoms: _274  and  _275
REMARK  108  A    between atoms: _274  and  _277
REMARK  109  A    between atoms: _277  and  _278
REMARK  110  A    between atoms: _278  and  _279
REMARK  111  A    between atoms: _279  and  _280
REMARK                            x       y       z     vdW  Elec       q    Type
REMARK                         _______ _______ _______ _____ _____    ______ ____
ROOT
ATOM      1  O   HOH     1      23.053   9.361  28.030  0.00  0.00    +0.000 OA
ENDROOT
TORSDOF 0
REMARK  Name = ../refined-set-2016/3td4/3td4_pocket.pdb
REMARK  111 active torsions:
REMARK  status: ('A' for Active; 'I' for Inactive)
REMARK    1  A    between atoms: _1  and  _3
REMARK    2  A    between atoms: _3  and  _4
REMARK    3  A    between atoms: _3  and  _6
REMARK    4  A    between atoms: _6  and  _7
REMARK    5  A    between atoms: _13  and  _15
REMARK    6  A    between atoms: _15  and  _16
REMARK    7  A    between atoms: _15  and  _18
REMARK    8  A    between atoms: _18  and  _19
REMARK    9  A    between atoms: _22  and  _24
REMARK   10  A    between atoms: _24  and  _25
REMARK   11  A    between atoms: _24  and  _27
REMARK   12  A    between atoms: _27  and  _28
REMARK   13  A    between atoms: _31  and  _33
REMARK   14  A    between atoms: _33  and  _34
REMARK   15  A    between atoms: _33  and  _36
REMARK   16  A    between atoms: _36  and  _37
REMARK   17  A    between atoms: _42  and  _44
REMARK   18  A    between atoms: _44  and  _45
REMARK   19  A    between atoms: _44  and  _47
REMARK   20  A    between atoms: _47  and  _48
REMARK   21  A    between atoms: _48  and  _49
REMARK   22  A    between atoms: _49  and  _50
REMARK   23  A    between atoms: _50  and  _51
REMARK   24  A    between atoms: _55  and  _57
REMARK   25  A    between atoms: _57  and  _58
REMARK   26  A    between atoms: _57  and  _60
REMARK   27  A    between atoms: _60  and  _61
REMARK   28  A    between atoms: _63  and  _65
REMARK   29  A    between atoms: _65  and  _66
REMARK   30  A    between atoms: _65  and  _68
REMARK   31  A    between atoms: _68  and  _69
REMARK   32  A    between atoms: _74  and  _76
REMARK   33  A    between atoms: _76  and  _77
REMARK   34  A    between atoms: _76  and  _79
REMARK   35  A    between atoms: _79  and  _80
REMARK   36  A    between atoms: _83  and  _85
REMARK   37  A    between atoms: _85  and  _86
REMARK   38  A    between atoms: _85  and  _88
REMARK   39  A    between atoms: _88  and  _89
REMARK   40  A    between atoms: _92  and  _94
REMARK   41  A    between atoms: _94  and  _95
REMARK   42  A    between atoms: _94  and  _97
REMARK   43  A    between atoms: _97  and  _98
REMARK   44  A    between atoms: _103  and  _105
REMARK   45  A    between atoms: _105  and  _106
REMARK   46  A    between atoms: _105  and  _108
REMARK   47  A    between atoms: _108  and  _109
REMARK   48  A    between atoms: _112  and  _114
REMARK   49  A    between atoms: _114  and  _115
REMARK   50  A    between atoms: _118  and  _119
REMARK   51  A    between atoms: _124  and  _126
REMARK   52  A    between atoms: _126  and  _127
REMARK   53  A    between atoms: _126  and  _129
REMARK   54  A    between atoms: _129  and  _130
REMARK   55  A    between atoms: _133  and  _135
REMARK   56  A    between atoms: _135  and  _136
REMARK   57  A    between atoms: _135  and  _138
REMARK   58  A    between atoms: _138  and  _139
REMARK   59  A    between atoms: _144  and  _146
REMARK   60  A    between atoms: _146  and  _147
REMARK   61  A    between atoms: _146  and  _149
REMARK   62  A    between atoms: _149  and  _150
REMARK   63  A    between atoms: _150  and  _151
REMARK   64  A    between atoms: _154  and  _156
REMARK   65  A    between atoms: _156  and  _157
REMARK   66  A    between atoms: _156  and  _159
REMARK   67  A    between atoms: _159  and  _160
REMARK   68  A    between atoms: _163  and  _165
REMARK   69  A    between atoms: _165  and  _166
REMARK   70  A    between atoms: _165  and  _168
REMARK   71  A    between atoms: _168  and  _169
REMARK   72  A    between atoms: _171  and  _173
REMARK   73  A    between atoms: _173  and  _174
REMARK   74  A    between atoms: _173  and  _176
REMARK   75  A    between atoms: _176  and  _177
REMARK   76  A    between atoms: _177  and  _178
REMARK   77  A    between atoms: _178  and  _179
REMARK   78  A    between atoms: _188  and  _190
REMARK   79  A    between atoms: _190  and  _191
REMARK   80  A    between atoms: _194  and  _196
REMARK   81  A    between atoms: _196  and  _197
REMARK   82  A    between atoms: _196  and  _199
REMARK   83  A    between atoms: _199  and  _200
REMARK   84  A    between atoms: _210  and  _212
REMARK   85  A    between atoms: _212  and  _213
REMARK   86  A    between atoms: _212  and  _215
REMARK   87  A    between atoms: _215  and  _216
REMARK   88  A    between atoms: _221  and  _223
REMARK   89  A    between atoms: _223  and  _224
REMARK   90  A    between atoms: _223  and  _226
REMARK   91  A    between atoms: _226  and  _227
REMARK   92  A    between atoms: _227  and  _228
REMARK   93  A    between atoms: _228  and  _229
REMARK   94  A    between atoms: _238  and  _240
REMARK   95  A    between atoms: _240  and  _241
REMARK   96  A    between atoms: _244  and  _246
REMARK   97  A    between atoms: _246  and  _247
REMARK   98  A    between atoms: _246  and  _249
REMARK   99  A    between atoms: _249  and  _250
REMARK  100  A    between atoms: _255  and  _257
REMARK  101  A    between atoms: _257  and  _258
REMARK  102  A    between atoms: _257  and  _260
REMARK  103  A    between atoms: _260  and  _261
REMARK  104  A    between atoms: _261  and  _262
REMARK  105  A    between atoms: _262  and  _263
REMARK  106  A    between atoms: _272  and  _274
REMARK  107  A    between atoms: _274  and  _275
REMARK  108  A    between atoms: _274  and  _277
REMARK  109  A    between atoms: _277  and  _278
REMARK  110  A    between atoms: _278  and  _279
REMARK  111  A    between atoms: _279  and  _280
REMARK                            x       y       z     vdW  Elec       q    Type
REMARK                         _______ _______ _______ _____ _____    ______ ____
ROOT
ATOM      1  O   HOH     1      21.294   3.817  17.448  0.00  0.00    +0.000 OA
ENDROOT
TORSDOF 0
REMARK  Name = ../refined-set-2016/3td4/3td4_pocket.pdb
REMARK  111 active torsions:
REMARK  status: ('A' for Active; 'I' for Inactive)
REMARK    1  A    between atoms: _1  and  _3
REMARK    2  A    between atoms: _3  and  _4
REMARK    3  A    between atoms: _3  and  _6
REMARK    4  A    between atoms: _6  and  _7
REMARK    5  A    between atoms: _13  and  _15
REMARK    6  A    between atoms: _15  and  _16
REMARK    7  A    between atoms: _15  and  _18
REMARK    8  A    between atoms: _18  and  _19
REMARK    9  A    between atoms: _22  and  _24
REMARK   10  A    between atoms: _24  and  _25
REMARK   11  A    between atoms: _24  and  _27
REMARK   12  A    between atoms: _27  and  _28
REMARK   13  A    between atoms: _31  and  _33
REMARK   14  A    between atoms: _33  and  _34
REMARK   15  A    between atoms: _33  and  _36
REMARK   16  A    between atoms: _36  and  _37
REMARK   17  A    between atoms: _42  and  _44
REMARK   18  A    between atoms: _44  and  _45
REMARK   19  A    between atoms: _44  and  _47
REMARK   20  A    between atoms: _47  and  _48
REMARK   21  A    between atoms: _48  and  _49
REMARK   22  A    between atoms: _49  and  _50
REMARK   23  A    between atoms: _50  and  _51
REMARK   24  A    between atoms: _55  and  _57
REMARK   25  A    between atoms: _57  and  _58
REMARK   26  A    between atoms: _57  and  _60
REMARK   27  A    between atoms: _60  and  _61
REMARK   28  A    between atoms: _63  and  _65
REMARK   29  A    between atoms: _65  and  _66
REMARK   30  A    between atoms: _65  and  _68
REMARK   31  A    between atoms: _68  and  _69
REMARK   32  A    between atoms: _74  and  _76
REMARK   33  A    between atoms: _76  and  _77
REMARK   34  A    between atoms: _76  and  _79
REMARK   35  A    between atoms: _79  and  _80
REMARK   36  A    between atoms: _83  and  _85
REMARK   37  A    between atoms: _85  and  _86
REMARK   38  A    between atoms: _85  and  _88
REMARK   39  A    between atoms: _88  and  _89
REMARK   40  A    between atoms: _92  and  _94
REMARK   41  A    between atoms: _94  and  _95
REMARK   42  A    between atoms: _94  and  _97
REMARK   43  A    between atoms: _97  and  _98
REMARK   44  A    between atoms: _103  and  _105
REMARK   45  A    between atoms: _105  and  _106
REMARK   46  A    between atoms: _105  and  _108
REMARK   47  A    between atoms: _108  and  _109
REMARK   48  A    between atoms: _112  and  _114
REMARK   49  A    between atoms: _114  and  _115
REMARK   50  A    between atoms: _118  and  _119
REMARK   51  A    between atoms: _124  and  _126
REMARK   52  A    between atoms: _126  and  _127
REMARK   53  A    between atoms: _126  and  _129
REMARK   54  A    between atoms: _129  and  _130
REMARK   55  A    between atoms: _133  and  _135
REMARK   56  A    between atoms: _135  and  _136
REMARK   57  A    between atoms: _135  and  _138
REMARK   58  A    between atoms: _138  and  _139
REMARK   59  A    between atoms: _144  and  _146
REMARK   60  A    between atoms: _146  and  _147
REMARK   61  A    between atoms: _146  and  _149
REMARK   62  A    between atoms: _149  and  _150
REMARK   63  A    between atoms: _150  and  _151
REMARK   64  A    between atoms: _154  and  _156
REMARK   65  A    between atoms: _156  and  _157
REMARK   66  A    between atoms: _156  and  _159
REMARK   67  A    between atoms: _159  and  _160
REMARK   68  A    between atoms: _163  and  _165
REMARK   69  A    between atoms: _165  and  _166
REMARK   70  A    between atoms: _165  and  _168
REMARK   71  A    between atoms: _168  and  _169
REMARK   72  A    between atoms: _171  and  _173
REMARK   73  A    between atoms: _173  and  _174
REMARK   74  A    between atoms: _173  and  _176
REMARK   75  A    between atoms: _176  and  _177
REMARK   76  A    between atoms: _177  and  _178
REMARK   77  A    between atoms: _178  and  _179
REMARK   78  A    between atoms: _188  and  _190
REMARK   79  A    between atoms: _190  and  _191
REMARK   80  A    between atoms: _194  and  _196
REMARK   81  A    between atoms: _196  and  _197
REMARK   82  A    between atoms: _196  and  _199
REMARK   83  A    between atoms: _199  and  _200
REMARK   84  A    between atoms: _210  and  _212
REMARK   85  A    between atoms: _212  and  _213
REMARK   86  A    between atoms: _212  and  _215
REMARK   87  A    between atoms: _215  and  _216
REMARK   88  A    between atoms: _221  and  _223
REMARK   89  A    between atoms: _223  and  _224
REMARK   90  A    between atoms: _223  and  _226
REMARK   91  A    between atoms: _226  and  _227
REMARK   92  A    between atoms: _227  and  _228
REMARK   93  A    between atoms: _228  and  _229
REMARK   94  A    between atoms: _238  and  _240
REMARK   95  A    between atoms: _240  and  _241
REMARK   96  A    between atoms: _244  and  _246
REMARK   97  A    between atoms: _246  and  _247
REMARK   98  A    between atoms: _246  and  _249
REMARK   99  A    between atoms: _249  and  _250
REMARK  100  A    between atoms: _255  and  _257
REMARK  101  A    between atoms: _257  and  _258
REMARK  102  A    between atoms: _257  and  _260
REMARK  103  A    between atoms: _260  and  _261
REMARK  104  A    between atoms: _261  and  _262
REMARK  105  A    between atoms: _262  and  _263
REMARK  106  A    between atoms: _272  and  _274
REMARK  107  A    between atoms: _274  and  _275
REMARK  108  A    between atoms: _274  and  _277
REMARK  109  A    between atoms: _277  and  _278
REMARK  110  A    between atoms: _278  and  _279
REMARK  111  A    between atoms: _279  and  _280
REMARK                            x       y       z     vdW  Elec       q    Type
REMARK                         _______ _______ _______ _____ _____    ______ ____
ROOT
ATOM      1  O   HOH     1      18.467   4.524  16.979  0.00  0.00    +0.000 OA
ENDROOT
TORSDOF 0
REMARK  Name = ../refined-set-2016/3td4/3td4_pocket.pdb
REMARK  111 active torsions:
REMARK  status: ('A' for Active; 'I' for Inactive)
REMARK    1  A    between atoms: _1  and  _3
REMARK    2  A    between atoms: _3  and  _4
REMARK    3  A    between atoms: _3  and  _6
REMARK    4  A    between atoms: _6  and  _7
REMARK    5  A    between atoms: _13  and  _15
REMARK    6  A    between atoms: _15  and  _16
REMARK    7  A    between atoms: _15  and  _18
REMARK    8  A    between atoms: _18  and  _19
REMARK    9  A    between atoms: _22  and  _24
REMARK   10  A    between atoms: _24  and  _25
REMARK   11  A    between atoms: _24  and  _27
REMARK   12  A    between atoms: _27  and  _28
REMARK   13  A    between atoms: _31  and  _33
REMARK   14  A    between atoms: _33  and  _34
REMARK   15  A    between atoms: _33  and  _36
REMARK   16  A    between atoms: _36  and  _37
REMARK   17  A    between atoms: _42  and  _44
REMARK   18  A    between atoms: _44  and  _45
REMARK   19  A    between atoms: _44  and  _47
REMARK   20  A    between atoms: _47  and  _48
REMARK   21  A    between atoms: _48  and  _49
REMARK   22  A    between atoms: _49  and  _50
REMARK   23  A    between atoms: _50  and  _51
REMARK   24  A    between atoms: _55  and  _57
REMARK   25  A    between atoms: _57  and  _58
REMARK   26  A    between atoms: _57  and  _60
REMARK   27  A    between atoms: _60  and  _61
REMARK   28  A    between atoms: _63  and  _65
REMARK   29  A    between atoms: _65  and  _66
REMARK   30  A    between atoms: _65  and  _68
REMARK   31  A    between atoms: _68  and  _69
REMARK   32  A    between atoms: _74  and  _76
REMARK   33  A    between atoms: _76  and  _77
REMARK   34  A    between atoms: _76  and  _79
REMARK   35  A    between atoms: _79  and  _80
REMARK   36  A    between atoms: _83  and  _85
REMARK   37  A    between atoms: _85  and  _86
REMARK   38  A    between atoms: _85  and  _88
REMARK   39  A    between atoms: _88  and  _89
REMARK   40  A    between atoms: _92  and  _94
REMARK   41  A    between atoms: _94  and  _95
REMARK   42  A    between atoms: _94  and  _97
REMARK   43  A    between atoms: _97  and  _98
REMARK   44  A    between atoms: _103  and  _105
REMARK   45  A    between atoms: _105  and  _106
REMARK   46  A    between atoms: _105  and  _108
REMARK   47  A    between atoms: _108  and  _109
REMARK   48  A    between atoms: _112  and  _114
REMARK   49  A    between atoms: _114  and  _115
REMARK   50  A    between atoms: _118  and  _119
REMARK   51  A    between atoms: _124  and  _126
REMARK   52  A    between atoms: _126  and  _127
REMARK   53  A    between atoms: _126  and  _129
REMARK   54  A    between atoms: _129  and  _130
REMARK   55  A    between atoms: _133  and  _135
REMARK   56  A    between atoms: _135  and  _136
REMARK   57  A    between atoms: _135  and  _138
REMARK   58  A    between atoms: _138  and  _139
REMARK   59  A    between atoms: _144  and  _146
REMARK   60  A    between atoms: _146  and  _147
REMARK   61  A    between atoms: _146  and  _149
REMARK   62  A    between atoms: _149  and  _150
REMARK   63  A    between atoms: _150  and  _151
REMARK   64  A    between atoms: _154  and  _156
REMARK   65  A    between atoms: _156  and  _157
REMARK   66  A    between atoms: _156  and  _159
REMARK   67  A    between atoms: _159  and  _160
REMARK   68  A    between atoms: _163  and  _165
REMARK   69  A    between atoms: _165  and  _166
REMARK   70  A    between atoms: _165  and  _168
REMARK   71  A    between atoms: _168  and  _169
REMARK   72  A    between atoms: _171  and  _173
REMARK   73  A    between atoms: _173  and  _174
REMARK   74  A    between atoms: _173  and  _176
REMARK   75  A    between atoms: _176  and  _177
REMARK   76  A    between atoms: _177  and  _178
REMARK   77  A    between atoms: _178  and  _179
REMARK   78  A    between atoms: _188  and  _190
REMARK   79  A    between atoms: _190  and  _191
REMARK   80  A    between atoms: _194  and  _196
REMARK   81  A    between atoms: _196  and  _197
REMARK   82  A    between atoms: _196  and  _199
REMARK   83  A    between atoms: _199  and  _200
REMARK   84  A    between atoms: _210  and  _212
REMARK   85  A    between atoms: _212  and  _213
REMARK   86  A    between atoms: _212  and  _215
REMARK   87  A    between atoms: _215  and  _216
REMARK   88  A    between atoms: _221  and  _223
REMARK   89  A    between atoms: _223  and  _224
REMARK   90  A    between atoms: _223  and  _226
REMARK   91  A    between atoms: _226  and  _227
REMARK   92  A    between atoms: _227  and  _228
REMARK   93  A    between atoms: _228  and  _229
REMARK   94  A    between atoms: _238  and  _240
REMARK   95  A    between atoms: _240  and  _241
REMARK   96  A    between atoms: _244  and  _246
REMARK   97  A    between atoms: _246  and  _247
REMARK   98  A    between atoms: _246  and  _249
REMARK   99  A    between atoms: _249  and  _250
REMARK  100  A    between atoms: _255  and  _257
REMARK  101  A    between atoms: _257  and  _258
REMARK  102  A    between atoms: _257  and  _260
REMARK  103  A    between atoms: _260  and  _261
REMARK  104  A    between atoms: _261  and  _262
REMARK  105  A    between atoms: _262  and  _263
REMARK  106  A    between atoms: _272  and  _274
REMARK  107  A    between atoms: _274  and  _275
REMARK  108  A    between atoms: _274  and  _277
REMARK  109  A    between atoms: _277  and  _278
REMARK  110  A    between atoms: _278  and  _279
REMARK  111  A    between atoms: _279  and  _280
REMARK                            x       y       z     vdW  Elec       q    Type
REMARK                         _______ _______ _______ _____ _____    ______ ____
ROOT
ATOM      1  O   HOH     1      17.843  10.754  29.995  0.00  0.00    +0.000 OA
ENDROOT
TORSDOF 0
REMARK  Name = ../refined-set-2016/3td4/3td4_pocket.pdb
REMARK  111 active torsions:
REMARK  status: ('A' for Active; 'I' for Inactive)
REMARK    1  A    between atoms: _1  and  _3
REMARK    2  A    between atoms: _3  and  _4
REMARK    3  A    between atoms: _3  and  _6
REMARK    4  A    between atoms: _6  and  _7
REMARK    5  A    between atoms: _13  and  _15
REMARK    6  A    between atoms: _15  and  _16
REMARK    7  A    between atoms: _15  and  _18
REMARK    8  A    between atoms: _18  and  _19
REMARK    9  A    between atoms: _22  and  _24
REMARK   10  A    between atoms: _24  and  _25
REMARK   11  A    between atoms: _24  and  _27
REMARK   12  A    between atoms: _27  and  _28
REMARK   13  A    between atoms: _31  and  _33
REMARK   14  A    between atoms: _33  and  _34
REMARK   15  A    between atoms: _33  and  _36
REMARK   16  A    between atoms: _36  and  _37
REMARK   17  A    between atoms: _42  and  _44
REMARK   18  A    between atoms: _44  and  _45
REMARK   19  A    between atoms: _44  and  _47
REMARK   20  A    between atoms: _47  and  _48
REMARK   21  A    between atoms: _48  and  _49
REMARK   22  A    between atoms: _49  and  _50
REMARK   23  A    between atoms: _50  and  _51
REMARK   24  A    between atoms: _55  and  _57
REMARK   25  A    between atoms: _57  and  _58
REMARK   26  A    between atoms: _57  and  _60
REMARK   27  A    between atoms: _60  and  _61
REMARK   28  A    between atoms: _63  and  _65
REMARK   29  A    between atoms: _65  and  _66
REMARK   30  A    between atoms: _65  and  _68
REMARK   31  A    between atoms: _68  and  _69
REMARK   32  A    between atoms: _74  and  _76
REMARK   33  A    between atoms: _76  and  _77
REMARK   34  A    between atoms: _76  and  _79
REMARK   35  A    between atoms: _79  and  _80
REMARK   36  A    between atoms: _83  and  _85
REMARK   37  A    between atoms: _85  and  _86
REMARK   38  A    between atoms: _85  and  _88
REMARK   39  A    between atoms: _88  and  _89
REMARK   40  A    between atoms: _92  and  _94
REMARK   41  A    between atoms: _94  and  _95
REMARK   42  A    between atoms: _94  and  _97
REMARK   43  A    between atoms: _97  and  _98
REMARK   44  A    between atoms: _103  and  _105
REMARK   45  A    between atoms: _105  and  _106
REMARK   46  A    between atoms: _105  and  _108
REMARK   47  A    between atoms: _108  and  _109
REMARK   48  A    between atoms: _112  and  _114
REMARK   49  A    between atoms: _114  and  _115
REMARK   50  A    between atoms: _118  and  _119
REMARK   51  A    between atoms: _124  and  _126
REMARK   52  A    between atoms: _126  and  _127
REMARK   53  A    between atoms: _126  and  _129
REMARK   54  A    between atoms: _129  and  _130
REMARK   55  A    between atoms: _133  and  _135
REMARK   56  A    between atoms: _135  and  _136
REMARK   57  A    between atoms: _135  and  _138
REMARK   58  A    between atoms: _138  and  _139
REMARK   59  A    between atoms: _144  and  _146
REMARK   60  A    between atoms: _146  and  _147
REMARK   61  A    between atoms: _146  and  _149
REMARK   62  A    between atoms: _149  and  _150
REMARK   63  A    between atoms: _150  and  _151
REMARK   64  A    between atoms: _154  and  _156
REMARK   65  A    between atoms: _156  and  _157
REMARK   66  A    between atoms: _156  and  _159
REMARK   67  A    between atoms: _159  and  _160
REMARK   68  A    between atoms: _163  and  _165
REMARK   69  A    between atoms: _165  and  _166
REMARK   70  A    between atoms: _165  and  _168
REMARK   71  A    between atoms: _168  and  _169
REMARK   72  A    between atoms: _171  and  _173
REMARK   73  A    between atoms: _173  and  _174
REMARK   74  A    between atoms: _173  and  _176
REMARK   75  A    between atoms: _176  and  _177
REMARK   76  A    between atoms: _177  and  _178
REMARK   77  A    between atoms: _178  and  _179
REMARK   78  A    between atoms: _188  and  _190
REMARK   79  A    between atoms: _190  and  _191
REMARK   80  A    between atoms: _194  and  _196
REMARK   81  A    between atoms: _196  and  _197
REMARK   82  A    between atoms: _196  and  _199
REMARK   83  A    between atoms: _199  and  _200
REMARK   84  A    between atoms: _210  and  _212
REMARK   85  A    between atoms: _212  and  _213
REMARK   86  A    between atoms: _212  and  _215
REMARK   87  A    between atoms: _215  and  _216
REMARK   88  A    between atoms: _221  and  _223
REMARK   89  A    between atoms: _223  and  _224
REMARK   90  A    between atoms: _223  and  _226
REMARK   91  A    between atoms: _226  and  _227
REMARK   92  A    between atoms: _227  and  _228
REMARK   93  A    between atoms: _228  and  _229
REMARK   94  A    between atoms: _238  and  _240
REMARK   95  A    between atoms: _240  and  _241
REMARK   96  A    between atoms: _244  and  _246
REMARK   97  A    between atoms: _246  and  _247
REMARK   98  A    between atoms: _246  and  _249
REMARK   99  A    between atoms: _249  and  _250
REMARK  100  A    between atoms: _255  and  _257
REMARK  101  A    between atoms: _257  and  _258
REMARK  102  A    between atoms: _257  and  _260
REMARK  103  A    between atoms: _260  and  _261
REMARK  104  A    between atoms: _261  and  _262
REMARK  105  A    between atoms: _262  and  _263
REMARK  106  A    between atoms: _272  and  _274
REMARK  107  A    between atoms: _274  and  _275
REMARK  108  A    between atoms: _274  and  _277
REMARK  109  A    between atoms: _277  and  _278
REMARK  110  A    between atoms: _278  and  _279
REMARK  111  A    between atoms: _279  and  _280
REMARK                            x       y       z     vdW  Elec       q    Type
REMARK                         _______ _______ _______ _____ _____    ______ ____
ROOT
ATOM      1  O   HOH     1      16.467   8.291  32.817  0.00  0.00    +0.000 OA
ENDROOT
TORSDOF 0
REMARK  Name = ../refined-set-2016/3td4/3td4_pocket.pdb
REMARK  111 active torsions:
REMARK  status: ('A' for Active; 'I' for Inactive)
REMARK    1  A    between atoms: _1  and  _3
REMARK    2  A    between atoms: _3  and  _4
REMARK    3  A    between atoms: _3  and  _6
REMARK    4  A    between atoms: _6  and  _7
REMARK    5  A    between atoms: _13  and  _15
REMARK    6  A    between atoms: _15  and  _16
REMARK    7  A    between atoms: _15  and  _18
REMARK    8  A    between atoms: _18  and  _19
REMARK    9  A    between atoms: _22  and  _24
REMARK   10  A    between atoms: _24  and  _25
REMARK   11  A    between atoms: _24  and  _27
REMARK   12  A    between atoms: _27  and  _28
REMARK   13  A    between atoms: _31  and  _33
REMARK   14  A    between atoms: _33  and  _34
REMARK   15  A    between atoms: _33  and  _36
REMARK   16  A    between atoms: _36  and  _37
REMARK   17  A    between atoms: _42  and  _44
REMARK   18  A    between atoms: _44  and  _45
REMARK   19  A    between atoms: _44  and  _47
REMARK   20  A    between atoms: _47  and  _48
REMARK   21  A    between atoms: _48  and  _49
REMARK   22  A    between atoms: _49  and  _50
REMARK   23  A    between atoms: _50  and  _51
REMARK   24  A    between atoms: _55  and  _57
REMARK   25  A    between atoms: _57  and  _58
REMARK   26  A    between atoms: _57  and  _60
REMARK   27  A    between atoms: _60  and  _61
REMARK   28  A    between atoms: _63  and  _65
REMARK   29  A    between atoms: _65  and  _66
REMARK   30  A    between atoms: _65  and  _68
REMARK   31  A    between atoms: _68  and  _69
REMARK   32  A    between atoms: _74  and  _76
REMARK   33  A    between atoms: _76  and  _77
REMARK   34  A    between atoms: _76  and  _79
REMARK   35  A    between atoms: _79  and  _80
REMARK   36  A    between atoms: _83  and  _85
REMARK   37  A    between atoms: _85  and  _86
REMARK   38  A    between atoms: _85  and  _88
REMARK   39  A    between atoms: _88  and  _89
REMARK   40  A    between atoms: _92  and  _94
REMARK   41  A    between atoms: _94  and  _95
REMARK   42  A    between atoms: _94  and  _97
REMARK   43  A    between atoms: _97  and  _98
REMARK   44  A    between atoms: _103  and  _105
REMARK   45  A    between atoms: _105  and  _106
REMARK   46  A    between atoms: _105  and  _108
REMARK   47  A    between atoms: _108  and  _109
REMARK   48  A    between atoms: _112  and  _114
REMARK   49  A    between atoms: _114  and  _115
REMARK   50  A    between atoms: _118  and  _119
REMARK   51  A    between atoms: _124  and  _126
REMARK   52  A    between atoms: _126  and  _127
REMARK   53  A    between atoms: _126  and  _129
REMARK   54  A    between atoms: _129  and  _130
REMARK   55  A    between atoms: _133  and  _135
REMARK   56  A    between atoms: _135  and  _136
REMARK   57  A    between atoms: _135  and  _138
REMARK   58  A    between atoms: _138  and  _139
REMARK   59  A    between atoms: _144  and  _146
REMARK   60  A    between atoms: _146  and  _147
REMARK   61  A    between atoms: _146  and  _149
REMARK   62  A    between atoms: _149  and  _150
REMARK   63  A    between atoms: _150  and  _151
REMARK   64  A    between atoms: _154  and  _156
REMARK   65  A    between atoms: _156  and  _157
REMARK   66  A    between atoms: _156  and  _159
REMARK   67  A    between atoms: _159  and  _160
REMARK   68  A    between atoms: _163  and  _165
REMARK   69  A    between atoms: _165  and  _166
REMARK   70  A    between atoms: _165  and  _168
REMARK   71  A    between atoms: _168  and  _169
REMARK   72  A    between atoms: _171  and  _173
REMARK   73  A    between atoms: _173  and  _174
REMARK   74  A    between atoms: _173  and  _176
REMARK   75  A    between atoms: _176  and  _177
REMARK   76  A    between atoms: _177  and  _178
REMARK   77  A    between atoms: _178  and  _179
REMARK   78  A    between atoms: _188  and  _190
REMARK   79  A    between atoms: _190  and  _191
REMARK   80  A    between atoms: _194  and  _196
REMARK   81  A    between atoms: _196  and  _197
REMARK   82  A    between atoms: _196  and  _199
REMARK   83  A    between atoms: _199  and  _200
REMARK   84  A    between atoms: _210  and  _212
REMARK   85  A    between atoms: _212  and  _213
REMARK   86  A    between atoms: _212  and  _215
REMARK   87  A    between atoms: _215  and  _216
REMARK   88  A    between atoms: _221  and  _223
REMARK   89  A    between atoms: _223  and  _224
REMARK   90  A    between atoms: _223  and  _226
REMARK   91  A    between atoms: _226  and  _227
REMARK   92  A    between atoms: _227  and  _228
REMARK   93  A    between atoms: _228  and  _229
REMARK   94  A    between atoms: _238  and  _240
REMARK   95  A    between atoms: _240  and  _241
REMARK   96  A    between atoms: _244  and  _246
REMARK   97  A    between atoms: _246  and  _247
REMARK   98  A    between atoms: _246  and  _249
REMARK   99  A    between atoms: _249  and  _250
REMARK  100  A    between atoms: _255  and  _257
REMARK  101  A    between atoms: _257  and  _258
REMARK  102  A    between atoms: _257  and  _260
REMARK  103  A    between atoms: _260  and  _261
REMARK  104  A    between atoms: _261  and  _262
REMARK  105  A    between atoms: _262  and  _263
REMARK  106  A    between atoms: _272  and  _274
REMARK  107  A    between atoms: _274  and  _275
REMARK  108  A    between atoms: _274  and  _277
REMARK  109  A    between atoms: _277  and  _278
REMARK  110  A    between atoms: _278  and  _279
REMARK  111  A    between atoms: _279  and  _280
REMARK                            x       y       z     vdW  Elec       q    Type
REMARK                         _______ _______ _______ _____ _____    ______ ____
ROOT
ATOM      1  O   HOH     1      25.529  -1.872  23.551  0.00  0.00    +0.000 OA
ENDROOT
TORSDOF 0
REMARK  Name = ../refined-set-2016/3td4/3td4_pocket.pdb
REMARK  111 active torsions:
REMARK  status: ('A' for Active; 'I' for Inactive)
REMARK    1  A    between atoms: _1  and  _3
REMARK    2  A    between atoms: _3  and  _4
REMARK    3  A    between atoms: _3  and  _6
REMARK    4  A    between atoms: _6  and  _7
REMARK    5  A    between atoms: _13  and  _15
REMARK    6  A    between atoms: _15  and  _16
REMARK    7  A    between atoms: _15  and  _18
REMARK    8  A    between atoms: _18  and  _19
REMARK    9  A    between atoms: _22  and  _24
REMARK   10  A    between atoms: _24  and  _25
REMARK   11  A    between atoms: _24  and  _27
REMARK   12  A    between atoms: _27  and  _28
REMARK   13  A    between atoms: _31  and  _33
REMARK   14  A    between atoms: _33  and  _34
REMARK   15  A    between atoms: _33  and  _36
REMARK   16  A    between atoms: _36  and  _37
REMARK   17  A    between atoms: _42  and  _44
REMARK   18  A    between atoms: _44  and  _45
REMARK   19  A    between atoms: _44  and  _47
REMARK   20  A    between atoms: _47  and  _48
REMARK   21  A    between atoms: _48  and  _49
REMARK   22  A    between atoms: _49  and  _50
REMARK   23  A    between atoms: _50  and  _51
REMARK   24  A    between atoms: _55  and  _57
REMARK   25  A    between atoms: _57  and  _58
REMARK   26  A    between atoms: _57  and  _60
REMARK   27  A    between atoms: _60  and  _61
REMARK   28  A    between atoms: _63  and  _65
REMARK   29  A    between atoms: _65  and  _66
REMARK   30  A    between atoms: _65  and  _68
REMARK   31  A    between atoms: _68  and  _69
REMARK   32  A    between atoms: _74  and  _76
REMARK   33  A    between atoms: _76  and  _77
REMARK   34  A    between atoms: _76  and  _79
REMARK   35  A    between atoms: _79  and  _80
REMARK   36  A    between atoms: _83  and  _85
REMARK   37  A    between atoms: _85  and  _86
REMARK   38  A    between atoms: _85  and  _88
REMARK   39  A    between atoms: _88  and  _89
REMARK   40  A    between atoms: _92  and  _94
REMARK   41  A    between atoms: _94  and  _95
REMARK   42  A    between atoms: _94  and  _97
REMARK   43  A    between atoms: _97  and  _98
REMARK   44  A    between atoms: _103  and  _105
REMARK   45  A    between atoms: _105  and  _106
REMARK   46  A    between atoms: _105  and  _108
REMARK   47  A    between atoms: _108  and  _109
REMARK   48  A    between atoms: _112  and  _114
REMARK   49  A    between atoms: _114  and  _115
REMARK   50  A    between atoms: _118  and  _119
REMARK   51  A    between atoms: _124  and  _126
REMARK   52  A    between atoms: _126  and  _127
REMARK   53  A    between atoms: _126  and  _129
REMARK   54  A    between atoms: _129  and  _130
REMARK   55  A    between atoms: _133  and  _135
REMARK   56  A    between atoms: _135  and  _136
REMARK   57  A    between atoms: _135  and  _138
REMARK   58  A    between atoms: _138  and  _139
REMARK   59  A    between atoms: _144  and  _146
REMARK   60  A    between atoms: _146  and  _147
REMARK   61  A    between atoms: _146  and  _149
REMARK   62  A    between atoms: _149  and  _150
REMARK   63  A    between atoms: _150  and  _151
REMARK   64  A    between atoms: _154  and  _156
REMARK   65  A    between atoms: _156  and  _157
REMARK   66  A    between atoms: _156  and  _159
REMARK   67  A    between atoms: _159  and  _160
REMARK   68  A    between atoms: _163  and  _165
REMARK   69  A    between atoms: _165  and  _166
REMARK   70  A    between atoms: _165  and  _168
REMARK   71  A    between atoms: _168  and  _169
REMARK   72  A    between atoms: _171  and  _173
REMARK   73  A    between atoms: _173  and  _174
REMARK   74  A    between atoms: _173  and  _176
REMARK   75  A    between atoms: _176  and  _177
REMARK   76  A    between atoms: _177  and  _178
REMARK   77  A    between atoms: _178  and  _179
REMARK   78  A    between atoms: _188  and  _190
REMARK   79  A    between atoms: _190  and  _191
REMARK   80  A    between atoms: _194  and  _196
REMARK   81  A    between atoms: _196  and  _197
REMARK   82  A    between atoms: _196  and  _199
REMARK   83  A    between atoms: _199  and  _200
REMARK   84  A    between atoms: _210  and  _212
REMARK   85  A    between atoms: _212  and  _213
REMARK   86  A    between atoms: _212  and  _215
REMARK   87  A    between atoms: _215  and  _216
REMARK   88  A    between atoms: _221  and  _223
REMARK   89  A    between atoms: _223  and  _224
REMARK   90  A    between atoms: _223  and  _226
REMARK   91  A    between atoms: _226  and  _227
REMARK   92  A    between atoms: _227  and  _228
REMARK   93  A    between atoms: _228  and  _229
REMARK   94  A    between atoms: _238  and  _240
REMARK   95  A    between atoms: _240  and  _241
REMARK   96  A    between atoms: _244  and  _246
REMARK   97  A    between atoms: _246  and  _247
REMARK   98  A    between atoms: _246  and  _249
REMARK   99  A    between atoms: _249  and  _250
REMARK  100  A    between atoms: _255  and  _257
REMARK  101  A    between atoms: _257  and  _258
REMARK  102  A    between atoms: _257  and  _260
REMARK  103  A    between atoms: _260  and  _261
REMARK  104  A    between atoms: _261  and  _262
REMARK  105  A    between atoms: _262  and  _263
REMARK  106  A    between atoms: _272  and  _274
REMARK  107  A    between atoms: _274  and  _275
REMARK  108  A    between atoms: _274  and  _277
REMARK  109  A    between atoms: _277  and  _278
REMARK  110  A    between atoms: _278  and  _279
REMARK  111  A    between atoms: _279  and  _280
REMARK                            x       y       z     vdW  Elec       q    Type
REMARK                         _______ _______ _______ _____ _____    ______ ____
ROOT
ATOM      1  O   HOH     1      21.704   6.256  27.125  0.00  0.00    +0.000 OA
ENDROOT
TORSDOF 0
REMARK  Name = ../refined-set-2016/3td4/3td4_pocket.pdb
REMARK  111 active torsions:
REMARK  status: ('A' for Active; 'I' for Inactive)
REMARK    1  A    between atoms: _1  and  _3
REMARK    2  A    between atoms: _3  and  _4
REMARK    3  A    between atoms: _3  and  _6
REMARK    4  A    between atoms: _6  and  _7
REMARK    5  A    between atoms: _13  and  _15
REMARK    6  A    between atoms: _15  and  _16
REMARK    7  A    between atoms: _15  and  _18
REMARK    8  A    between atoms: _18  and  _19
REMARK    9  A    between atoms: _22  and  _24
REMARK   10  A    between atoms: _24  and  _25
REMARK   11  A    between atoms: _24  and  _27
REMARK   12  A    between atoms: _27  and  _28
REMARK   13  A    between atoms: _31  and  _33
REMARK   14  A    between atoms: _33  and  _34
REMARK   15  A    between atoms: _33  and  _36
REMARK   16  A    between atoms: _36  and  _37
REMARK   17  A    between atoms: _42  and  _44
REMARK   18  A    between atoms: _44  and  _45
REMARK   19  A    between atoms: _44  and  _47
REMARK   20  A    between atoms: _47  and  _48
REMARK   21  A    between atoms: _48  and  _49
REMARK   22  A    between atoms: _49  and  _50
REMARK   23  A    between atoms: _50  and  _51
REMARK   24  A    between atoms: _55  and  _57
REMARK   25  A    between atoms: _57  and  _58
REMARK   26  A    between atoms: _57  and  _60
REMARK   27  A    between atoms: _60  and  _61
REMARK   28  A    between atoms: _63  and  _65
REMARK   29  A    between atoms: _65  and  _66
REMARK   30  A    between atoms: _65  and  _68
REMARK   31  A    between atoms: _68  and  _69
REMARK   32  A    between atoms: _74  and  _76
REMARK   33  A    between atoms: _76  and  _77
REMARK   34  A    between atoms: _76  and  _79
REMARK   35  A    between atoms: _79  and  _80
REMARK   36  A    between atoms: _83  and  _85
REMARK   37  A    between atoms: _85  and  _86
REMARK   38  A    between atoms: _85  and  _88
REMARK   39  A    between atoms: _88  and  _89
REMARK   40  A    between atoms: _92  and  _94
REMARK   41  A    between atoms: _94  and  _95
REMARK   42  A    between atoms: _94  and  _97
REMARK   43  A    between atoms: _97  and  _98
REMARK   44  A    between atoms: _103  and  _105
REMARK   45  A    between atoms: _105  and  _106
REMARK   46  A    between atoms: _105  and  _108
REMARK   47  A    between atoms: _108  and  _109
REMARK   48  A    between atoms: _112  and  _114
REMARK   49  A    between atoms: _114  and  _115
REMARK   50  A    between atoms: _118  and  _119
REMARK   51  A    between atoms: _124  and  _126
REMARK   52  A    between atoms: _126  and  _127
REMARK   53  A    between atoms: _126  and  _129
REMARK   54  A    between atoms: _129  and  _130
REMARK   55  A    between atoms: _133  and  _135
REMARK   56  A    between atoms: _135  and  _136
REMARK   57  A    between atoms: _135  and  _138
REMARK   58  A    between atoms: _138  and  _139
REMARK   59  A    between atoms: _144  and  _146
REMARK   60  A    between atoms: _146  and  _147
REMARK   61  A    between atoms: _146  and  _149
REMARK   62  A    between atoms: _149  and  _150
REMARK   63  A    between atoms: _150  and  _151
REMARK   64  A    between atoms: _154  and  _156
REMARK   65  A    between atoms: _156  and  _157
REMARK   66  A    between atoms: _156  and  _159
REMARK   67  A    between atoms: _159  and  _160
REMARK   68  A    between atoms: _163  and  _165
REMARK   69  A    between atoms: _165  and  _166
REMARK   70  A    between atoms: _165  and  _168
REMARK   71  A    between atoms: _168  and  _169
REMARK   72  A    between atoms: _171  and  _173
REMARK   73  A    between atoms: _173  and  _174
REMARK   74  A    between atoms: _173  and  _176
REMARK   75  A    between atoms: _176  and  _177
REMARK   76  A    between atoms: _177  and  _178
REMARK   77  A    between atoms: _178  and  _179
REMARK   78  A    between atoms: _188  and  _190
REMARK   79  A    between atoms: _190  and  _191
REMARK   80  A    between atoms: _194  and  _196
REMARK   81  A    between atoms: _196  and  _197
REMARK   82  A    between atoms: _196  and  _199
REMARK   83  A    between atoms: _199  and  _200
REMARK   84  A    between atoms: _210  and  _212
REMARK   85  A    between atoms: _212  and  _213
REMARK   86  A    between atoms: _212  and  _215
REMARK   87  A    between atoms: _215  and  _216
REMARK   88  A    between atoms: _221  and  _223
REMARK   89  A    between atoms: _223  and  _224
REMARK   90  A    between atoms: _223  and  _226
REMARK   91  A    between atoms: _226  and  _227
REMARK   92  A    between atoms: _227  and  _228
REMARK   93  A    between atoms: _228  and  _229
REMARK   94  A    between atoms: _238  and  _240
REMARK   95  A    between atoms: _240  and  _241
REMARK   96  A    between atoms: _244  and  _246
REMARK   97  A    between atoms: _246  and  _247
REMARK   98  A    between atoms: _246  and  _249
REMARK   99  A    between atoms: _249  and  _250
REMARK  100  A    between atoms: _255  and  _257
REMARK  101  A    between atoms: _257  and  _258
REMARK  102  A    between atoms: _257  and  _260
REMARK  103  A    between atoms: _260  and  _261
REMARK  104  A    between atoms: _261  and  _262
REMARK  105  A    between atoms: _262  and  _263
REMARK  106  A    between atoms: _272  and  _274
REMARK  107  A    between atoms: _274  and  _275
REMARK  108  A    between atoms: _274  and  _277
REMARK  109  A    between atoms: _277  and  _278
REMARK  110  A    between atoms: _278  and  _279
REMARK  111  A    between atoms: _279  and  _280
REMARK                            x       y       z     vdW  Elec       q    Type
REMARK                         _______ _______ _______ _____ _____    ______ ____
ROOT
ATOM      1  O   HOH     1      24.658  -1.590  30.813  0.00  0.00    +0.000 OA
ENDROOT
TORSDOF 0
REMARK  Name = ../refined-set-2016/3td4/3td4_pocket.pdb
REMARK  111 active torsions:
REMARK  status: ('A' for Active; 'I' for Inactive)
REMARK    1  A    between atoms: _1  and  _3
REMARK    2  A    between atoms: _3  and  _4
REMARK    3  A    between atoms: _3  and  _6
REMARK    4  A    between atoms: _6  and  _7
REMARK    5  A    between atoms: _13  and  _15
REMARK    6  A    between atoms: _15  and  _16
REMARK    7  A    between atoms: _15  and  _18
REMARK    8  A    between atoms: _18  and  _19
REMARK    9  A    between atoms: _22  and  _24
REMARK   10  A    between atoms: _24  and  _25
REMARK   11  A    between atoms: _24  and  _27
REMARK   12  A    between atoms: _27  and  _28
REMARK   13  A    between atoms: _31  and  _33
REMARK   14  A    between atoms: _33  and  _34
REMARK   15  A    between atoms: _33  and  _36
REMARK   16  A    between atoms: _36  and  _37
REMARK   17  A    between atoms: _42  and  _44
REMARK   18  A    between atoms: _44  and  _45
REMARK   19  A    between atoms: _44  and  _47
REMARK   20  A    between atoms: _47  and  _48
REMARK   21  A    between atoms: _48  and  _49
REMARK   22  A    between atoms: _49  and  _50
REMARK   23  A    between atoms: _50  and  _51
REMARK   24  A    between atoms: _55  and  _57
REMARK   25  A    between atoms: _57  and  _58
REMARK   26  A    between atoms: _57  and  _60
REMARK   27  A    between atoms: _60  and  _61
REMARK   28  A    between atoms: _63  and  _65
REMARK   29  A    between atoms: _65  and  _66
REMARK   30  A    between atoms: _65  and  _68
REMARK   31  A    between atoms: _68  and  _69
REMARK   32  A    between atoms: _74  and  _76
REMARK   33  A    between atoms: _76  and  _77
REMARK   34  A    between atoms: _76  and  _79
REMARK   35  A    between atoms: _79  and  _80
REMARK   36  A    between atoms: _83  and  _85
REMARK   37  A    between atoms: _85  and  _86
REMARK   38  A    between atoms: _85  and  _88
REMARK   39  A    between atoms: _88  and  _89
REMARK   40  A    between atoms: _92  and  _94
REMARK   41  A    between atoms: _94  and  _95
REMARK   42  A    between atoms: _94  and  _97
REMARK   43  A    between atoms: _97  and  _98
REMARK   44  A    between atoms: _103  and  _105
REMARK   45  A    between atoms: _105  and  _106
REMARK   46  A    between atoms: _105  and  _108
REMARK   47  A    between atoms: _108  and  _109
REMARK   48  A    between atoms: _112  and  _114
REMARK   49  A    between atoms: _114  and  _115
REMARK   50  A    between atoms: _118  and  _119
REMARK   51  A    between atoms: _124  and  _126
REMARK   52  A    between atoms: _126  and  _127
REMARK   53  A    between atoms: _126  and  _129
REMARK   54  A    between atoms: _129  and  _130
REMARK   55  A    between atoms: _133  and  _135
REMARK   56  A    between atoms: _135  and  _136
REMARK   57  A    between atoms: _135  and  _138
REMARK   58  A    between atoms: _138  and  _139
REMARK   59  A    between atoms: _144  and  _146
REMARK   60  A    between atoms: _146  and  _147
REMARK   61  A    between atoms: _146  and  _149
REMARK   62  A    between atoms: _149  and  _150
REMARK   63  A    between atoms: _150  and  _151
REMARK   64  A    between atoms: _154  and  _156
REMARK   65  A    between atoms: _156  and  _157
REMARK   66  A    between atoms: _156  and  _159
REMARK   67  A    between atoms: _159  and  _160
REMARK   68  A    between atoms: _163  and  _165
REMARK   69  A    between atoms: _165  and  _166
REMARK   70  A    between atoms: _165  and  _168
REMARK   71  A    between atoms: _168  and  _169
REMARK   72  A    between atoms: _171  and  _173
REMARK   73  A    between atoms: _173  and  _174
REMARK   74  A    between atoms: _173  and  _176
REMARK   75  A    between atoms: _176  and  _177
REMARK   76  A    between atoms: _177  and  _178
REMARK   77  A    between atoms: _178  and  _179
REMARK   78  A    between atoms: _188  and  _190
REMARK   79  A    between atoms: _190  and  _191
REMARK   80  A    between atoms: _194  and  _196
REMARK   81  A    between atoms: _196  and  _197
REMARK   82  A    between atoms: _196  and  _199
REMARK   83  A    between atoms: _199  and  _200
REMARK   84  A    between atoms: _210  and  _212
REMARK   85  A    between atoms: _212  and  _213
REMARK   86  A    between atoms: _212  and  _215
REMARK   87  A    between atoms: _215  and  _216
REMARK   88  A    between atoms: _221  and  _223
REMARK   89  A    between atoms: _223  and  _224
REMARK   90  A    between atoms: _223  and  _226
REMARK   91  A    between atoms: _226  and  _227
REMARK   92  A    between atoms: _227  and  _228
REMARK   93  A    between atoms: _228  and  _229
REMARK   94  A    between atoms: _238  and  _240
REMARK   95  A    between atoms: _240  and  _241
REMARK   96  A    between atoms: _244  and  _246
REMARK   97  A    between atoms: _246  and  _247
REMARK   98  A    between atoms: _246  and  _249
REMARK   99  A    between atoms: _249  and  _250
REMARK  100  A    between atoms: _255  and  _257
REMARK  101  A    between atoms: _257  and  _258
REMARK  102  A    between atoms: _257  and  _260
REMARK  103  A    between atoms: _260  and  _261
REMARK  104  A    between atoms: _261  and  _262
REMARK  105  A    between atoms: _262  and  _263
REMARK  106  A    between atoms: _272  and  _274
REMARK  107  A    between atoms: _274  and  _275
REMARK  108  A    between atoms: _274  and  _277
REMARK  109  A    between atoms: _277  and  _278
REMARK  110  A    between atoms: _278  and  _279
REMARK  111  A    between atoms: _279  and  _280
REMARK                            x       y       z     vdW  Elec       q    Type
REMARK                         _______ _______ _______ _____ _____    ______ ____
ROOT
ATOM      1  O   HOH     1      14.097  -2.822  28.470  0.00  0.00    +0.000 OA
ENDROOT
TORSDOF 0
REMARK  Name = ../refined-set-2016/3td4/3td4_pocket.pdb
REMARK  111 active torsions:
REMARK  status: ('A' for Active; 'I' for Inactive)
REMARK    1  A    between atoms: _1  and  _3
REMARK    2  A    between atoms: _3  and  _4
REMARK    3  A    between atoms: _3  and  _6
REMARK    4  A    between atoms: _6  and  _7
REMARK    5  A    between atoms: _13  and  _15
REMARK    6  A    between atoms: _15  and  _16
REMARK    7  A    between atoms: _15  and  _18
REMARK    8  A    between atoms: _18  and  _19
REMARK    9  A    between atoms: _22  and  _24
REMARK   10  A    between atoms: _24  and  _25
REMARK   11  A    between atoms: _24  and  _27
REMARK   12  A    between atoms: _27  and  _28
REMARK   13  A    between atoms: _31  and  _33
REMARK   14  A    between atoms: _33  and  _34
REMARK   15  A    between atoms: _33  and  _36
REMARK   16  A    between atoms: _36  and  _37
REMARK   17  A    between atoms: _42  and  _44
REMARK   18  A    between atoms: _44  and  _45
REMARK   19  A    between atoms: _44  and  _47
REMARK   20  A    between atoms: _47  and  _48
REMARK   21  A    between atoms: _48  and  _49
REMARK   22  A    between atoms: _49  and  _50
REMARK   23  A    between atoms: _50  and  _51
REMARK   24  A    between atoms: _55  and  _57
REMARK   25  A    between atoms: _57  and  _58
REMARK   26  A    between atoms: _57  and  _60
REMARK   27  A    between atoms: _60  and  _61
REMARK   28  A    between atoms: _63  and  _65
REMARK   29  A    between atoms: _65  and  _66
REMARK   30  A    between atoms: _65  and  _68
REMARK   31  A    between atoms: _68  and  _69
REMARK   32  A    between atoms: _74  and  _76
REMARK   33  A    between atoms: _76  and  _77
REMARK   34  A    between atoms: _76  and  _79
REMARK   35  A    between atoms: _79  and  _80
REMARK   36  A    between atoms: _83  and  _85
REMARK   37  A    between atoms: _85  and  _86
REMARK   38  A    between atoms: _85  and  _88
REMARK   39  A    between atoms: _88  and  _89
REMARK   40  A    between atoms: _92  and  _94
REMARK   41  A    between atoms: _94  and  _95
REMARK   42  A    between atoms: _94  and  _97
REMARK   43  A    between atoms: _97  and  _98
REMARK   44  A    between atoms: _103  and  _105
REMARK   45  A    between atoms: _105  and  _106
REMARK   46  A    between atoms: _105  and  _108
REMARK   47  A    between atoms: _108  and  _109
REMARK   48  A    between atoms: _112  and  _114
REMARK   49  A    between atoms: _114  and  _115
REMARK   50  A    between atoms: _118  and  _119
REMARK   51  A    between atoms: _124  and  _126
REMARK   52  A    between atoms: _126  and  _127
REMARK   53  A    between atoms: _126  and  _129
REMARK   54  A    between atoms: _129  and  _130
REMARK   55  A    between atoms: _133  and  _135
REMARK   56  A    between atoms: _135  and  _136
REMARK   57  A    between atoms: _135  and  _138
REMARK   58  A    between atoms: _138  and  _139
REMARK   59  A    between atoms: _144  and  _146
REMARK   60  A    between atoms: _146  and  _147
REMARK   61  A    between atoms: _146  and  _149
REMARK   62  A    between atoms: _149  and  _150
REMARK   63  A    between atoms: _150  and  _151
REMARK   64  A    between atoms: _154  and  _156
REMARK   65  A    between atoms: _156  and  _157
REMARK   66  A    between atoms: _156  and  _159
REMARK   67  A    between atoms: _159  and  _160
REMARK   68  A    between atoms: _163  and  _165
REMARK   69  A    between atoms: _165  and  _166
REMARK   70  A    between atoms: _165  and  _168
REMARK   71  A    between atoms: _168  and  _169
REMARK   72  A    between atoms: _171  and  _173
REMARK   73  A    between atoms: _173  and  _174
REMARK   74  A    between atoms: _173  and  _176
REMARK   75  A    between atoms: _176  and  _177
REMARK   76  A    between atoms: _177  and  _178
REMARK   77  A    between atoms: _178  and  _179
REMARK   78  A    between atoms: _188  and  _190
REMARK   79  A    between atoms: _190  and  _191
REMARK   80  A    between atoms: _194  and  _196
REMARK   81  A    between atoms: _196  and  _197
REMARK   82  A    between atoms: _196  and  _199
REMARK   83  A    between atoms: _199  and  _200
REMARK   84  A    between atoms: _210  and  _212
REMARK   85  A    between atoms: _212  and  _213
REMARK   86  A    between atoms: _212  and  _215
REMARK   87  A    between atoms: _215  and  _216
REMARK   88  A    between atoms: _221  and  _223
REMARK   89  A    between atoms: _223  and  _224
REMARK   90  A    between atoms: _223  and  _226
REMARK   91  A    between atoms: _226  and  _227
REMARK   92  A    between atoms: _227  and  _228
REMARK   93  A    between atoms: _228  and  _229
REMARK   94  A    between atoms: _238  and  _240
REMARK   95  A    between atoms: _240  and  _241
REMARK   96  A    between atoms: _244  and  _246
REMARK   97  A    between atoms: _246  and  _247
REMARK   98  A    between atoms: _246  and  _249
REMARK   99  A    between atoms: _249  and  _250
REMARK  100  A    between atoms: _255  and  _257
REMARK  101  A    between atoms: _257  and  _258
REMARK  102  A    between atoms: _257  and  _260
REMARK  103  A    between atoms: _260  and  _261
REMARK  104  A    between atoms: _261  and  _262
REMARK  105  A    between atoms: _262  and  _263
REMARK  106  A    between atoms: _272  and  _274
REMARK  107  A    between atoms: _274  and  _275
REMARK  108  A    between atoms: _274  and  _277
REMARK  109  A    between atoms: _277  and  _278
REMARK  110  A    between atoms: _278  and  _279
REMARK  111  A    between atoms: _279  and  _280
REMARK                            x       y       z     vdW  Elec       q    Type
REMARK                         _______ _______ _______ _____ _____    ______ ____
ROOT
ATOM      1  O   HOH     1      27.028   0.141  26.602  0.00  0.00    +0.000 OA
ENDROOT
TORSDOF 0
REMARK  Name = ../refined-set-2016/3td4/3td4_pocket.pdb
REMARK  111 active torsions:
REMARK  status: ('A' for Active; 'I' for Inactive)
REMARK    1  A    between atoms: _1  and  _3
REMARK    2  A    between atoms: _3  and  _4
REMARK    3  A    between atoms: _3  and  _6
REMARK    4  A    between atoms: _6  and  _7
REMARK    5  A    between atoms: _13  and  _15
REMARK    6  A    between atoms: _15  and  _16
REMARK    7  A    between atoms: _15  and  _18
REMARK    8  A    between atoms: _18  and  _19
REMARK    9  A    between atoms: _22  and  _24
REMARK   10  A    between atoms: _24  and  _25
REMARK   11  A    between atoms: _24  and  _27
REMARK   12  A    between atoms: _27  and  _28
REMARK   13  A    between atoms: _31  and  _33
REMARK   14  A    between atoms: _33  and  _34
REMARK   15  A    between atoms: _33  and  _36
REMARK   16  A    between atoms: _36  and  _37
REMARK   17  A    between atoms: _42  and  _44
REMARK   18  A    between atoms: _44  and  _45
REMARK   19  A    between atoms: _44  and  _47
REMARK   20  A    between atoms: _47  and  _48
REMARK   21  A    between atoms: _48  and  _49
REMARK   22  A    between atoms: _49  and  _50
REMARK   23  A    between atoms: _50  and  _51
REMARK   24  A    between atoms: _55  and  _57
REMARK   25  A    between atoms: _57  and  _58
REMARK   26  A    between atoms: _57  and  _60
REMARK   27  A    between atoms: _60  and  _61
REMARK   28  A    between atoms: _63  and  _65
REMARK   29  A    between atoms: _65  and  _66
REMARK   30  A    between atoms: _65  and  _68
REMARK   31  A    between atoms: _68  and  _69
REMARK   32  A    between atoms: _74  and  _76
REMARK   33  A    between atoms: _76  and  _77
REMARK   34  A    between atoms: _76  and  _79
REMARK   35  A    between atoms: _79  and  _80
REMARK   36  A    between atoms: _83  and  _85
REMARK   37  A    between atoms: _85  and  _86
REMARK   38  A    between atoms: _85  and  _88
REMARK   39  A    between atoms: _88  and  _89
REMARK   40  A    between atoms: _92  and  _94
REMARK   41  A    between atoms: _94  and  _95
REMARK   42  A    between atoms: _94  and  _97
REMARK   43  A    between atoms: _97  and  _98
REMARK   44  A    between atoms: _103  and  _105
REMARK   45  A    between atoms: _105  and  _106
REMARK   46  A    between atoms: _105  and  _108
REMARK   47  A    between atoms: _108  and  _109
REMARK   48  A    between atoms: _112  and  _114
REMARK   49  A    between atoms: _114  and  _115
REMARK   50  A    between atoms: _118  and  _119
REMARK   51  A    between atoms: _124  and  _126
REMARK   52  A    between atoms: _126  and  _127
REMARK   53  A    between atoms: _126  and  _129
REMARK   54  A    between atoms: _129  and  _130
REMARK   55  A    between atoms: _133  and  _135
REMARK   56  A    between atoms: _135  and  _136
REMARK   57  A    between atoms: _135  and  _138
REMARK   58  A    between atoms: _138  and  _139
REMARK   59  A    between atoms: _144  and  _146
REMARK   60  A    between atoms: _146  and  _147
REMARK   61  A    between atoms: _146  and  _149
REMARK   62  A    between atoms: _149  and  _150
REMARK   63  A    between atoms: _150  and  _151
REMARK   64  A    between atoms: _154  and  _156
REMARK   65  A    between atoms: _156  and  _157
REMARK   66  A    between atoms: _156  and  _159
REMARK   67  A    between atoms: _159  and  _160
REMARK   68  A    between atoms: _163  and  _165
REMARK   69  A    between atoms: _165  and  _166
REMARK   70  A    between atoms: _165  and  _168
REMARK   71  A    between atoms: _168  and  _169
REMARK   72  A    between atoms: _171  and  _173
REMARK   73  A    between atoms: _173  and  _174
REMARK   74  A    between atoms: _173  and  _176
REMARK   75  A    between atoms: _176  and  _177
REMARK   76  A    between atoms: _177  and  _178
REMARK   77  A    between atoms: _178  and  _179
REMARK   78  A    between atoms: _188  and  _190
REMARK   79  A    between atoms: _190  and  _191
REMARK   80  A    between atoms: _194  and  _196
REMARK   81  A    between atoms: _196  and  _197
REMARK   82  A    between atoms: _196  and  _199
REMARK   83  A    between atoms: _199  and  _200
REMARK   84  A    between atoms: _210  and  _212
REMARK   85  A    between atoms: _212  and  _213
REMARK   86  A    between atoms: _212  and  _215
REMARK   87  A    between atoms: _215  and  _216
REMARK   88  A    between atoms: _221  and  _223
REMARK   89  A    between atoms: _223  and  _224
REMARK   90  A    between atoms: _223  and  _226
REMARK   91  A    between atoms: _226  and  _227
REMARK   92  A    between atoms: _227  and  _228
REMARK   93  A    between atoms: _228  and  _229
REMARK   94  A    between atoms: _238  and  _240
REMARK   95  A    between atoms: _240  and  _241
REMARK   96  A    between atoms: _244  and  _246
REMARK   97  A    between atoms: _246  and  _247
REMARK   98  A    between atoms: _246  and  _249
REMARK   99  A    between atoms: _249  and  _250
REMARK  100  A    between atoms: _255  and  _257
REMARK  101  A    between atoms: _257  and  _258
REMARK  102  A    between atoms: _257  and  _260
REMARK  103  A    between atoms: _260  and  _261
REMARK  104  A    between atoms: _261  and  _262
REMARK  105  A    between atoms: _262  and  _263
REMARK  106  A    between atoms: _272  and  _274
REMARK  107  A    between atoms: _274  and  _275
REMARK  108  A    between atoms: _274  and  _277
REMARK  109  A    between atoms: _277  and  _278
REMARK  110  A    between atoms: _278  and  _279
REMARK  111  A    between atoms: _279  and  _280
REMARK                            x       y       z     vdW  Elec       q    Type
REMARK                         _______ _______ _______ _____ _____    ______ ____
ROOT
ATOM      1  O   HOH     1      21.983   1.825  34.180  0.00  0.00    +0.000 OA
ENDROOT
TORSDOF 0
REMARK  Name = ../refined-set-2016/3td4/3td4_pocket.pdb
REMARK  111 active torsions:
REMARK  status: ('A' for Active; 'I' for Inactive)
REMARK    1  A    between atoms: _1  and  _3
REMARK    2  A    between atoms: _3  and  _4
REMARK    3  A    between atoms: _3  and  _6
REMARK    4  A    between atoms: _6  and  _7
REMARK    5  A    between atoms: _13  and  _15
REMARK    6  A    between atoms: _15  and  _16
REMARK    7  A    between atoms: _15  and  _18
REMARK    8  A    between atoms: _18  and  _19
REMARK    9  A    between atoms: _22  and  _24
REMARK   10  A    between atoms: _24  and  _25
REMARK   11  A    between atoms: _24  and  _27
REMARK   12  A    between atoms: _27  and  _28
REMARK   13  A    between atoms: _31  and  _33
REMARK   14  A    between atoms: _33  and  _34
REMARK   15  A    between atoms: _33  and  _36
REMARK   16  A    between atoms: _36  and  _37
REMARK   17  A    between atoms: _42  and  _44
REMARK   18  A    between atoms: _44  and  _45
REMARK   19  A    between atoms: _44  and  _47
REMARK   20  A    between atoms: _47  and  _48
REMARK   21  A    between atoms: _48  and  _49
REMARK   22  A    between atoms: _49  and  _50
REMARK   23  A    between atoms: _50  and  _51
REMARK   24  A    between atoms: _55  and  _57
REMARK   25  A    between atoms: _57  and  _58
REMARK   26  A    between atoms: _57  and  _60
REMARK   27  A    between atoms: _60  and  _61
REMARK   28  A    between atoms: _63  and  _65
REMARK   29  A    between atoms: _65  and  _66
REMARK   30  A    between atoms: _65  and  _68
REMARK   31  A    between atoms: _68  and  _69
REMARK   32  A    between atoms: _74  and  _76
REMARK   33  A    between atoms: _76  and  _77
REMARK   34  A    between atoms: _76  and  _79
REMARK   35  A    between atoms: _79  and  _80
REMARK   36  A    between atoms: _83  and  _85
REMARK   37  A    between atoms: _85  and  _86
REMARK   38  A    between atoms: _85  and  _88
REMARK   39  A    between atoms: _88  and  _89
REMARK   40  A    between atoms: _92  and  _94
REMARK   41  A    between atoms: _94  and  _95
REMARK   42  A    between atoms: _94  and  _97
REMARK   43  A    between atoms: _97  and  _98
REMARK   44  A    between atoms: _103  and  _105
REMARK   45  A    between atoms: _105  and  _106
REMARK   46  A    between atoms: _105  and  _108
REMARK   47  A    between atoms: _108  and  _109
REMARK   48  A    between atoms: _112  and  _114
REMARK   49  A    between atoms: _114  and  _115
REMARK   50  A    between atoms: _118  and  _119
REMARK   51  A    between atoms: _124  and  _126
REMARK   52  A    between atoms: _126  and  _127
REMARK   53  A    between atoms: _126  and  _129
REMARK   54  A    between atoms: _129  and  _130
REMARK   55  A    between atoms: _133  and  _135
REMARK   56  A    between atoms: _135  and  _136
REMARK   57  A    between atoms: _135  and  _138
REMARK   58  A    between atoms: _138  and  _139
REMARK   59  A    between atoms: _144  and  _146
REMARK   60  A    between atoms: _146  and  _147
REMARK   61  A    between atoms: _146  and  _149
REMARK   62  A    between atoms: _149  and  _150
REMARK   63  A    between atoms: _150  and  _151
REMARK   64  A    between atoms: _154  and  _156
REMARK   65  A    between atoms: _156  and  _157
REMARK   66  A    between atoms: _156  and  _159
REMARK   67  A    between atoms: _159  and  _160
REMARK   68  A    between atoms: _163  and  _165
REMARK   69  A    between atoms: _165  and  _166
REMARK   70  A    between atoms: _165  and  _168
REMARK   71  A    between atoms: _168  and  _169
REMARK   72  A    between atoms: _171  and  _173
REMARK   73  A    between atoms: _173  and  _174
REMARK   74  A    between atoms: _173  and  _176
REMARK   75  A    between atoms: _176  and  _177
REMARK   76  A    between atoms: _177  and  _178
REMARK   77  A    between atoms: _178  and  _179
REMARK   78  A    between atoms: _188  and  _190
REMARK   79  A    between atoms: _190  and  _191
REMARK   80  A    between atoms: _194  and  _196
REMARK   81  A    between atoms: _196  and  _197
REMARK   82  A    between atoms: _196  and  _199
REMARK   83  A    between atoms: _199  and  _200
REMARK   84  A    between atoms: _210  and  _212
REMARK   85  A    between atoms: _212  and  _213
REMARK   86  A    between atoms: _212  and  _215
REMARK   87  A    between atoms: _215  and  _216
REMARK   88  A    between atoms: _221  and  _223
REMARK   89  A    between atoms: _223  and  _224
REMARK   90  A    between atoms: _223  and  _226
REMARK   91  A    between atoms: _226  and  _227
REMARK   92  A    between atoms: _227  and  _228
REMARK   93  A    between atoms: _228  and  _229
REMARK   94  A    between atoms: _238  and  _240
REMARK   95  A    between atoms: _240  and  _241
REMARK   96  A    between atoms: _244  and  _246
REMARK   97  A    between atoms: _246  and  _247
REMARK   98  A    between atoms: _246  and  _249
REMARK   99  A    between atoms: _249  and  _250
REMARK  100  A    between atoms: _255  and  _257
REMARK  101  A    between atoms: _257  and  _258
REMARK  102  A    between atoms: _257  and  _260
REMARK  103  A    between atoms: _260  and  _261
REMARK  104  A    between atoms: _261  and  _262
REMARK  105  A    between atoms: _262  and  _263
REMARK  106  A    between atoms: _272  and  _274
REMARK  107  A    between atoms: _274  and  _275
REMARK  108  A    between atoms: _274  and  _277
REMARK  109  A    between atoms: _277  and  _278
REMARK  110  A    between atoms: _278  and  _279
REMARK  111  A    between atoms: _279  and  _280
REMARK                            x       y       z     vdW  Elec       q    Type
REMARK                         _______ _______ _______ _____ _____    ______ ____
ROOT
ATOM      1  O   HOH     1      16.758  12.277  27.209  0.00  0.00    +0.000 OA
ENDROOT
TORSDOF 0
