REMARK  Name = ../refined-set-2016/3n9r/3n9r_pocket.pdb
REMARK  181 active torsions:
REMARK  status: ('A' for Active; 'I' for Inactive)
REMARK    1  A    between atoms: _1  and  _3
REMARK    2  A    between atoms: _3  and  _4
REMARK    3  A    between atoms: _7  and  _9
REMARK    4  A    between atoms: _9  and  _10
REMARK    5  A    between atoms: _9  and  _12
REMARK    6  A    between atoms: _12  and  _13
REMARK    7  A    between atoms: _18  and  _20
REMARK    8  A    between atoms: _20  and  _21
REMARK    9  A    between atoms: _20  and  _23
REMARK   10  A    between atoms: _23  and  _24
REMARK   11  A    between atoms: _24  and  _25
REMARK   12  A    between atoms: _30  and  _32
REMARK   13  A    between atoms: _32  and  _33
REMARK   14  A    between atoms: _32  and  _35
REMARK   15  A    between atoms: _35  and  _36
REMARK   16  A    between atoms: _38  and  _40
REMARK   17  A    between atoms: _40  and  _41
REMARK   18  A    between atoms: _40  and  _43
REMARK   19  A    between atoms: _43  and  _44
REMARK   20  A    between atoms: _47  and  _49
REMARK   21  A    between atoms: _49  and  _50
REMARK   22  A    between atoms: _49  and  _52
REMARK   23  A    between atoms: _52  and  _53
REMARK   24  A    between atoms: _57  and  ZN_424
REMARK   25  A    between atoms: _58  and  _60
REMARK   26  A    between atoms: _60  and  _61
REMARK   27  A    between atoms: _60  and  _63
REMARK   28  A    between atoms: _63  and  _64
REMARK   29  A    between atoms: _64  and  _65
REMARK   30  A    between atoms: _67  and  _69
REMARK   31  A    between atoms: _69  and  _70
REMARK   32  A    between atoms: _69  and  _72
REMARK   33  A    between atoms: _72  and  _73
REMARK   34  A    between atoms: _76  and  _78
REMARK   35  A    between atoms: _78  and  _79
REMARK   36  A    between atoms: _78  and  _81
REMARK   37  A    between atoms: _81  and  _82
REMARK   38  A    between atoms: _82  and  _83
REMARK   39  A    between atoms: _86  and  _88
REMARK   40  A    between atoms: _88  and  _89
REMARK   41  A    between atoms: _88  and  _91
REMARK   42  A    between atoms: _91  and  _92
REMARK   43  A    between atoms: _92  and  _93
REMARK   44  A    between atoms: _96  and  _98
REMARK   45  A    between atoms: _98  and  _99
REMARK   46  A    between atoms: _98  and  _101
REMARK   47  A    between atoms: _101  and  _102
REMARK   48  A    between atoms: _105  and  _107
REMARK   49  A    between atoms: _107  and  _108
REMARK   50  A    between atoms: _107  and  _110
REMARK   51  A    between atoms: _110  and  _111
REMARK   52  A    between atoms: _114  and  _116
REMARK   53  A    between atoms: _116  and  _117
REMARK   54  A    between atoms: _116  and  _119
REMARK   55  A    between atoms: _119  and  _120
REMARK   56  A    between atoms: _122  and  _124
REMARK   57  A    between atoms: _124  and  _125
REMARK   58  A    between atoms: _124  and  _127
REMARK   59  A    between atoms: _127  and  _128
REMARK   60  A    between atoms: _132  and  ZN_424
REMARK   61  A    between atoms: _133  and  _135
REMARK   62  A    between atoms: _135  and  _136
REMARK   63  A    between atoms: _138  and  _140
REMARK   64  A    between atoms: _140  and  _141
REMARK   65  A    between atoms: _144  and  _146
REMARK   66  A    between atoms: _146  and  _147
REMARK   67  A    between atoms: _146  and  _149
REMARK   68  A    between atoms: _149  and  _150
REMARK   69  A    between atoms: _156  and  _158
REMARK   70  A    between atoms: _158  and  _159
REMARK   71  A    between atoms: _158  and  _161
REMARK   72  A    between atoms: _161  and  _162
REMARK   73  A    between atoms: _162  and  _163
REMARK   74  A    between atoms: _163  and  _164
REMARK   75  A    between atoms: _164  and  _165
REMARK   76  A    between atoms: _169  and  _171
REMARK   77  A    between atoms: _171  and  _172
REMARK   78  A    between atoms: _171  and  _174
REMARK   79  A    between atoms: _177  and  _179
REMARK   80  A    between atoms: _179  and  _180
REMARK   81  A    between atoms: _179  and  _182
REMARK   82  A    between atoms: _182  and  _183
REMARK   83  A    between atoms: _186  and  _188
REMARK   84  A    between atoms: _188  and  _189
REMARK   85  A    between atoms: _188  and  _191
REMARK   86  A    between atoms: _191  and  _192
REMARK   87  A    between atoms: _193  and  ZN_424
REMARK   88  A    between atoms: _197  and  _199
REMARK   89  A    between atoms: _199  and  _200
REMARK   90  A    between atoms: _202  and  _204
REMARK   91  A    between atoms: _204  and  _205
REMARK   92  A    between atoms: _208  and  _210
REMARK   93  A    between atoms: _210  and  _211
REMARK   94  A    between atoms: _210  and  _213
REMARK   95  A    between atoms: _213  and  _214
REMARK   96  A    between atoms: _216  and  _218
REMARK   97  A    between atoms: _218  and  _219
REMARK   98  A    between atoms: _222  and  _224
REMARK   99  A    between atoms: _224  and  _225
REMARK  100  A    between atoms: _224  and  _227
REMARK  101  A    between atoms: _227  and  _228
REMARK  102  A    between atoms: _231  and  _233
REMARK  103  A    between atoms: _233  and  _234
REMARK  104  A    between atoms: _233  and  _236
REMARK  105  A    between atoms: _236  and  _237
REMARK  106  A    between atoms: _237  and  _238
REMARK  107  A    between atoms: _238  and  _239
REMARK  108  A    between atoms: _239  and  _240
REMARK  109  A    between atoms: _244  and  _246
REMARK  110  A    between atoms: _246  and  _247
REMARK  111  A    between atoms: _249  and  _251
REMARK  112  A    between atoms: _251  and  _252
REMARK  113  A    between atoms: _251  and  _254
REMARK  114  A    between atoms: _257  and  _259
REMARK  115  A    between atoms: _259  and  _260
REMARK  116  A    between atoms: _259  and  _262
REMARK  117  A    between atoms: _262  and  _263
REMARK  118  A    between atoms: _266  and  _268
REMARK  119  A    between atoms: _268  and  _269
REMARK  120  A    between atoms: _268  and  _271
REMARK  121  A    between atoms: _271  and  _272
REMARK  122  A    between atoms: _272  and  _273
REMARK  123  A    between atoms: _273  and  _274
REMARK  124  A    between atoms: _274  and  _275
REMARK  125  A    between atoms: _279  and  _281
REMARK  126  A    between atoms: _281  and  _282
REMARK  127  A    between atoms: _281  and  _284
REMARK  128  A    between atoms: _287  and  _289
REMARK  129  A    between atoms: _289  and  _290
REMARK  130  A    between atoms: _289  and  _292
REMARK  131  A    between atoms: _292  and  _293
REMARK  132  A    between atoms: _298  and  _300
REMARK  133  A    between atoms: _300  and  _301
REMARK  134  A    between atoms: _300  and  _303
REMARK  135  A    between atoms: _303  and  _304
REMARK  136  A    between atoms: _307  and  _309
REMARK  137  A    between atoms: _309  and  _310
REMARK  138  A    between atoms: _309  and  _312
REMARK  139  A    between atoms: _312  and  _313
REMARK  140  A    between atoms: _316  and  _318
REMARK  141  A    between atoms: _318  and  _319
REMARK  142  A    between atoms: _318  and  _321
REMARK  143  A    between atoms: _321  and  _322
REMARK  144  A    between atoms: _325  and  _327
REMARK  145  A    between atoms: _327  and  _328
REMARK  146  A    between atoms: _327  and  _330
REMARK  147  A    between atoms: _330  and  _331
REMARK  148  A    between atoms: _334  and  _336
REMARK  149  A    between atoms: _336  and  _337
REMARK  150  A    between atoms: _336  and  _339
REMARK  151  A    between atoms: _339  and  _340
REMARK  152  A    between atoms: _343  and  _345
REMARK  153  A    between atoms: _345  and  _346
REMARK  154  A    between atoms: _345  and  _348
REMARK  155  A    between atoms: _348  and  _349
REMARK  156  A    between atoms: _349  and  _350
REMARK  157  A    between atoms: _350  and  _351
REMARK  158  A    between atoms: _360  and  _362
REMARK  159  A    between atoms: _362  and  _363
REMARK  160  A    between atoms: _362  and  _365
REMARK  161  A    between atoms: _365  and  _366
REMARK  162  A    between atoms: _369  and  _371
REMARK  163  A    between atoms: _371  and  _372
REMARK  164  A    between atoms: _371  and  _374
REMARK  165  A    between atoms: _374  and  _375
REMARK  166  A    between atoms: _375  and  _376
REMARK  167  A    between atoms: _376  and  _377
REMARK  168  A    between atoms: _386  and  _388
REMARK  169  A    between atoms: _388  and  _389
REMARK  170  A    between atoms: _388  and  _391
REMARK  171  A    between atoms: _391  and  _392
REMARK  172  A    between atoms: _398  and  _400
REMARK  173  A    between atoms: _400  and  _401
REMARK  174  A    between atoms: _400  and  _403
REMARK  175  A    between atoms: _403  and  _404
REMARK  176  A    between atoms: _407  and  _409
REMARK  177  A    between atoms: _409  and  _410
REMARK  178  A    between atoms: _409  and  _412
REMARK  179  A    between atoms: _412  and  _413
REMARK  180  A    between atoms: _413  and  _414
REMARK  181  A    between atoms: _414  and  _415
REMARK                            x       y       z     vdW  Elec       q    Type
REMARK                         _______ _______ _______ _____ _____    ______ ____
ROOT
ATOM      1  CA  ALA A   1     -16.333  -6.108 -35.420  0.00  0.00    +0.133 C 
ATOM      2  CB  ALA A   1     -16.018  -7.570 -35.667  0.00  0.00    +0.027 C 
ENDROOT
BRANCH   1   3
ATOM      3  N   ALA A   1     -17.580  -5.721 -36.097  0.00  0.00    -0.239 NA
ATOM      4  H   ALA A   1     -17.634  -5.784 -37.134  0.00  0.00    +0.142 HD
ENDBRANCH   1   3
BRANCH   1   5
ATOM      5  C   ALA A   1     -15.239  -5.210 -35.975  0.00  0.00    +0.224 C 
ATOM      6  O   ALA A   1     -14.859  -5.307 -37.140  0.00  0.00    -0.287 OA
ENDBRANCH   1   5
TORSDOF 2
REMARK  Name = ../refined-set-2016/3n9r/3n9r_pocket.pdb
REMARK  181 active torsions:
REMARK  status: ('A' for Active; 'I' for Inactive)
REMARK    1  A    between atoms: _1  and  _3
REMARK    2  A    between atoms: _3  and  _4
REMARK    3  A    between atoms: _7  and  _9
REMARK    4  A    between atoms: _9  and  _10
REMARK    5  A    between atoms: _9  and  _12
REMARK    6  A    between atoms: _12  and  _13
REMARK    7  A    between atoms: _18  and  _20
REMARK    8  A    between atoms: _20  and  _21
REMARK    9  A    between atoms: _20  and  _23
REMARK   10  A    between atoms: _23  and  _24
REMARK   11  A    between atoms: _24  and  _25
REMARK   12  A    between atoms: _30  and  _32
REMARK   13  A    between atoms: _32  and  _33
REMARK   14  A    between atoms: _32  and  _35
REMARK   15  A    between atoms: _35  and  _36
REMARK   16  A    between atoms: _38  and  _40
REMARK   17  A    between atoms: _40  and  _41
REMARK   18  A    between atoms: _40  and  _43
REMARK   19  A    between atoms: _43  and  _44
REMARK   20  A    between atoms: _47  and  _49
REMARK   21  A    between atoms: _49  and  _50
REMARK   22  A    between atoms: _49  and  _52
REMARK   23  A    between atoms: _52  and  _53
REMARK   24  A    between atoms: _57  and  ZN_424
REMARK   25  A    between atoms: _58  and  _60
REMARK   26  A    between atoms: _60  and  _61
REMARK   27  A    between atoms: _60  and  _63
REMARK   28  A    between atoms: _63  and  _64
REMARK   29  A    between atoms: _64  and  _65
REMARK   30  A    between atoms: _67  and  _69
REMARK   31  A    between atoms: _69  and  _70
REMARK   32  A    between atoms: _69  and  _72
REMARK   33  A    between atoms: _72  and  _73
REMARK   34  A    between atoms: _76  and  _78
REMARK   35  A    between atoms: _78  and  _79
REMARK   36  A    between atoms: _78  and  _81
REMARK   37  A    between atoms: _81  and  _82
REMARK   38  A    between atoms: _82  and  _83
REMARK   39  A    between atoms: _86  and  _88
REMARK   40  A    between atoms: _88  and  _89
REMARK   41  A    between atoms: _88  and  _91
REMARK   42  A    between atoms: _91  and  _92
REMARK   43  A    between atoms: _92  and  _93
REMARK   44  A    between atoms: _96  and  _98
REMARK   45  A    between atoms: _98  and  _99
REMARK   46  A    between atoms: _98  and  _101
REMARK   47  A    between atoms: _101  and  _102
REMARK   48  A    between atoms: _105  and  _107
REMARK   49  A    between atoms: _107  and  _108
REMARK   50  A    between atoms: _107  and  _110
REMARK   51  A    between atoms: _110  and  _111
REMARK   52  A    between atoms: _114  and  _116
REMARK   53  A    between atoms: _116  and  _117
REMARK   54  A    between atoms: _116  and  _119
REMARK   55  A    between atoms: _119  and  _120
REMARK   56  A    between atoms: _122  and  _124
REMARK   57  A    between atoms: _124  and  _125
REMARK   58  A    between atoms: _124  and  _127
REMARK   59  A    between atoms: _127  and  _128
REMARK   60  A    between atoms: _132  and  ZN_424
REMARK   61  A    between atoms: _133  and  _135
REMARK   62  A    between atoms: _135  and  _136
REMARK   63  A    between atoms: _138  and  _140
REMARK   64  A    between atoms: _140  and  _141
REMARK   65  A    between atoms: _144  and  _146
REMARK   66  A    between atoms: _146  and  _147
REMARK   67  A    between atoms: _146  and  _149
REMARK   68  A    between atoms: _149  and  _150
REMARK   69  A    between atoms: _156  and  _158
REMARK   70  A    between atoms: _158  and  _159
REMARK   71  A    between atoms: _158  and  _161
REMARK   72  A    between atoms: _161  and  _162
REMARK   73  A    between atoms: _162  and  _163
REMARK   74  A    between atoms: _163  and  _164
REMARK   75  A    between atoms: _164  and  _165
REMARK   76  A    between atoms: _169  and  _171
REMARK   77  A    between atoms: _171  and  _172
REMARK   78  A    between atoms: _171  and  _174
REMARK   79  A    between atoms: _177  and  _179
REMARK   80  A    between atoms: _179  and  _180
REMARK   81  A    between atoms: _179  and  _182
REMARK   82  A    between atoms: _182  and  _183
REMARK   83  A    between atoms: _186  and  _188
REMARK   84  A    between atoms: _188  and  _189
REMARK   85  A    between atoms: _188  and  _191
REMARK   86  A    between atoms: _191  and  _192
REMARK   87  A    between atoms: _193  and  ZN_424
REMARK   88  A    between atoms: _197  and  _199
REMARK   89  A    between atoms: _199  and  _200
REMARK   90  A    between atoms: _202  and  _204
REMARK   91  A    between atoms: _204  and  _205
REMARK   92  A    between atoms: _208  and  _210
REMARK   93  A    between atoms: _210  and  _211
REMARK   94  A    between atoms: _210  and  _213
REMARK   95  A    between atoms: _213  and  _214
REMARK   96  A    between atoms: _216  and  _218
REMARK   97  A    between atoms: _218  and  _219
REMARK   98  A    between atoms: _222  and  _224
REMARK   99  A    between atoms: _224  and  _225
REMARK  100  A    between atoms: _224  and  _227
REMARK  101  A    between atoms: _227  and  _228
REMARK  102  A    between atoms: _231  and  _233
REMARK  103  A    between atoms: _233  and  _234
REMARK  104  A    between atoms: _233  and  _236
REMARK  105  A    between atoms: _236  and  _237
REMARK  106  A    between atoms: _237  and  _238
REMARK  107  A    between atoms: _238  and  _239
REMARK  108  A    between atoms: _239  and  _240
REMARK  109  A    between atoms: _244  and  _246
REMARK  110  A    between atoms: _246  and  _247
REMARK  111  A    between atoms: _249  and  _251
REMARK  112  A    between atoms: _251  and  _252
REMARK  113  A    between atoms: _251  and  _254
REMARK  114  A    between atoms: _257  and  _259
REMARK  115  A    between atoms: _259  and  _260
REMARK  116  A    between atoms: _259  and  _262
REMARK  117  A    between atoms: _262  and  _263
REMARK  118  A    between atoms: _266  and  _268
REMARK  119  A    between atoms: _268  and  _269
REMARK  120  A    between atoms: _268  and  _271
REMARK  121  A    between atoms: _271  and  _272
REMARK  122  A    between atoms: _272  and  _273
REMARK  123  A    between atoms: _273  and  _274
REMARK  124  A    between atoms: _274  and  _275
REMARK  125  A    between atoms: _279  and  _281
REMARK  126  A    between atoms: _281  and  _282
REMARK  127  A    between atoms: _281  and  _284
REMARK  128  A    between atoms: _287  and  _289
REMARK  129  A    between atoms: _289  and  _290
REMARK  130  A    between atoms: _289  and  _292
REMARK  131  A    between atoms: _292  and  _293
REMARK  132  A    between atoms: _298  and  _300
REMARK  133  A    between atoms: _300  and  _301
REMARK  134  A    between atoms: _300  and  _303
REMARK  135  A    between atoms: _303  and  _304
REMARK  136  A    between atoms: _307  and  _309
REMARK  137  A    between atoms: _309  and  _310
REMARK  138  A    between atoms: _309  and  _312
REMARK  139  A    between atoms: _312  and  _313
REMARK  140  A    between atoms: _316  and  _318
REMARK  141  A    between atoms: _318  and  _319
REMARK  142  A    between atoms: _318  and  _321
REMARK  143  A    between atoms: _321  and  _322
REMARK  144  A    between atoms: _325  and  _327
REMARK  145  A    between atoms: _327  and  _328
REMARK  146  A    between atoms: _327  and  _330
REMARK  147  A    between atoms: _330  and  _331
REMARK  148  A    between atoms: _334  and  _336
REMARK  149  A    between atoms: _336  and  _337
REMARK  150  A    between atoms: _336  and  _339
REMARK  151  A    between atoms: _339  and  _340
REMARK  152  A    between atoms: _343  and  _345
REMARK  153  A    between atoms: _345  and  _346
REMARK  154  A    between atoms: _345  and  _348
REMARK  155  A    between atoms: _348  and  _349
REMARK  156  A    between atoms: _349  and  _350
REMARK  157  A    between atoms: _350  and  _351
REMARK  158  A    between atoms: _360  and  _362
REMARK  159  A    between atoms: _362  and  _363
REMARK  160  A    between atoms: _362  and  _365
REMARK  161  A    between atoms: _365  and  _366
REMARK  162  A    between atoms: _369  and  _371
REMARK  163  A    between atoms: _371  and  _372
REMARK  164  A    between atoms: _371  and  _374
REMARK  165  A    between atoms: _374  and  _375
REMARK  166  A    between atoms: _375  and  _376
REMARK  167  A    between atoms: _376  and  _377
REMARK  168  A    between atoms: _386  and  _388
REMARK  169  A    between atoms: _388  and  _389
REMARK  170  A    between atoms: _388  and  _391
REMARK  171  A    between atoms: _391  and  _392
REMARK  172  A    between atoms: _398  and  _400
REMARK  173  A    between atoms: _400  and  _401
REMARK  174  A    between atoms: _400  and  _403
REMARK  175  A    between atoms: _403  and  _404
REMARK  176  A    between atoms: _407  and  _409
REMARK  177  A    between atoms: _409  and  _410
REMARK  178  A    between atoms: _409  and  _412
REMARK  179  A    between atoms: _412  and  _413
REMARK  180  A    between atoms: _413  and  _414
REMARK  181  A    between atoms: _414  and  _415
REMARK                            x       y       z     vdW  Elec       q    Type
REMARK                         _______ _______ _______ _____ _____    ______ ____
ROOT
ATOM      1  CB  ASN A   1      -9.393  -3.670 -37.092  0.00  0.00    +0.110 C 
ENDROOT
BRANCH   1   2
ATOM      2  CG  ASN A   1      -9.538  -5.115 -37.503  0.00  0.00    +0.221 C 
ATOM      3  ND2 ASN A   1      -8.536  -5.931 -37.189  0.00  0.00    -0.329 N 
ATOM      4 HD21 ASN A   1      -7.697  -5.560 -36.700  0.00  0.00    +0.145 HD
ATOM      5 HD22 ASN A   1      -8.592  -6.941 -37.433  0.00  0.00    +0.145 HD
ATOM      6  OD1 ASN A   1     -10.549  -5.500 -38.079  0.00  0.00    -0.275 OA
ENDBRANCH   1   2
BRANCH   1   7
ATOM      7  CA  ASN A   1     -10.189  -3.347 -35.818  0.00  0.00    +0.142 C 
BRANCH   7   8
ATOM      8  N   ASN A   1     -11.603  -3.237 -36.135  0.00  0.00    -0.239 NA
ATOM      9  H   ASN A   1     -11.895  -3.055 -37.116  0.00  0.00    +0.142 HD
ENDBRANCH   7   8
BRANCH   7  10
ATOM     10  C   ASN A   1      -9.638  -2.065 -35.194  0.00  0.00    +0.225 C 
ATOM     11  O   ASN A   1     -10.062  -0.965 -35.532  0.00  0.00    -0.287 OA
ENDBRANCH   7  10
ENDBRANCH   1   7
TORSDOF 4
REMARK  Name = ../refined-set-2016/3n9r/3n9r_pocket.pdb
REMARK  181 active torsions:
REMARK  status: ('A' for Active; 'I' for Inactive)
REMARK    1  A    between atoms: _1  and  _3
REMARK    2  A    between atoms: _3  and  _4
REMARK    3  A    between atoms: _7  and  _9
REMARK    4  A    between atoms: _9  and  _10
REMARK    5  A    between atoms: _9  and  _12
REMARK    6  A    between atoms: _12  and  _13
REMARK    7  A    between atoms: _18  and  _20
REMARK    8  A    between atoms: _20  and  _21
REMARK    9  A    between atoms: _20  and  _23
REMARK   10  A    between atoms: _23  and  _24
REMARK   11  A    between atoms: _24  and  _25
REMARK   12  A    between atoms: _30  and  _32
REMARK   13  A    between atoms: _32  and  _33
REMARK   14  A    between atoms: _32  and  _35
REMARK   15  A    between atoms: _35  and  _36
REMARK   16  A    between atoms: _38  and  _40
REMARK   17  A    between atoms: _40  and  _41
REMARK   18  A    between atoms: _40  and  _43
REMARK   19  A    between atoms: _43  and  _44
REMARK   20  A    between atoms: _47  and  _49
REMARK   21  A    between atoms: _49  and  _50
REMARK   22  A    between atoms: _49  and  _52
REMARK   23  A    between atoms: _52  and  _53
REMARK   24  A    between atoms: _57  and  ZN_424
REMARK   25  A    between atoms: _58  and  _60
REMARK   26  A    between atoms: _60  and  _61
REMARK   27  A    between atoms: _60  and  _63
REMARK   28  A    between atoms: _63  and  _64
REMARK   29  A    between atoms: _64  and  _65
REMARK   30  A    between atoms: _67  and  _69
REMARK   31  A    between atoms: _69  and  _70
REMARK   32  A    between atoms: _69  and  _72
REMARK   33  A    between atoms: _72  and  _73
REMARK   34  A    between atoms: _76  and  _78
REMARK   35  A    between atoms: _78  and  _79
REMARK   36  A    between atoms: _78  and  _81
REMARK   37  A    between atoms: _81  and  _82
REMARK   38  A    between atoms: _82  and  _83
REMARK   39  A    between atoms: _86  and  _88
REMARK   40  A    between atoms: _88  and  _89
REMARK   41  A    between atoms: _88  and  _91
REMARK   42  A    between atoms: _91  and  _92
REMARK   43  A    between atoms: _92  and  _93
REMARK   44  A    between atoms: _96  and  _98
REMARK   45  A    between atoms: _98  and  _99
REMARK   46  A    between atoms: _98  and  _101
REMARK   47  A    between atoms: _101  and  _102
REMARK   48  A    between atoms: _105  and  _107
REMARK   49  A    between atoms: _107  and  _108
REMARK   50  A    between atoms: _107  and  _110
REMARK   51  A    between atoms: _110  and  _111
REMARK   52  A    between atoms: _114  and  _116
REMARK   53  A    between atoms: _116  and  _117
REMARK   54  A    between atoms: _116  and  _119
REMARK   55  A    between atoms: _119  and  _120
REMARK   56  A    between atoms: _122  and  _124
REMARK   57  A    between atoms: _124  and  _125
REMARK   58  A    between atoms: _124  and  _127
REMARK   59  A    between atoms: _127  and  _128
REMARK   60  A    between atoms: _132  and  ZN_424
REMARK   61  A    between atoms: _133  and  _135
REMARK   62  A    between atoms: _135  and  _136
REMARK   63  A    between atoms: _138  and  _140
REMARK   64  A    between atoms: _140  and  _141
REMARK   65  A    between atoms: _144  and  _146
REMARK   66  A    between atoms: _146  and  _147
REMARK   67  A    between atoms: _146  and  _149
REMARK   68  A    between atoms: _149  and  _150
REMARK   69  A    between atoms: _156  and  _158
REMARK   70  A    between atoms: _158  and  _159
REMARK   71  A    between atoms: _158  and  _161
REMARK   72  A    between atoms: _161  and  _162
REMARK   73  A    between atoms: _162  and  _163
REMARK   74  A    between atoms: _163  and  _164
REMARK   75  A    between atoms: _164  and  _165
REMARK   76  A    between atoms: _169  and  _171
REMARK   77  A    between atoms: _171  and  _172
REMARK   78  A    between atoms: _171  and  _174
REMARK   79  A    between atoms: _177  and  _179
REMARK   80  A    between atoms: _179  and  _180
REMARK   81  A    between atoms: _179  and  _182
REMARK   82  A    between atoms: _182  and  _183
REMARK   83  A    between atoms: _186  and  _188
REMARK   84  A    between atoms: _188  and  _189
REMARK   85  A    between atoms: _188  and  _191
REMARK   86  A    between atoms: _191  and  _192
REMARK   87  A    between atoms: _193  and  ZN_424
REMARK   88  A    between atoms: _197  and  _199
REMARK   89  A    between atoms: _199  and  _200
REMARK   90  A    between atoms: _202  and  _204
REMARK   91  A    between atoms: _204  and  _205
REMARK   92  A    between atoms: _208  and  _210
REMARK   93  A    between atoms: _210  and  _211
REMARK   94  A    between atoms: _210  and  _213
REMARK   95  A    between atoms: _213  and  _214
REMARK   96  A    between atoms: _216  and  _218
REMARK   97  A    between atoms: _218  and  _219
REMARK   98  A    between atoms: _222  and  _224
REMARK   99  A    between atoms: _224  and  _225
REMARK  100  A    between atoms: _224  and  _227
REMARK  101  A    between atoms: _227  and  _228
REMARK  102  A    between atoms: _231  and  _233
REMARK  103  A    between atoms: _233  and  _234
REMARK  104  A    between atoms: _233  and  _236
REMARK  105  A    between atoms: _236  and  _237
REMARK  106  A    between atoms: _237  and  _238
REMARK  107  A    between atoms: _238  and  _239
REMARK  108  A    between atoms: _239  and  _240
REMARK  109  A    between atoms: _244  and  _246
REMARK  110  A    between atoms: _246  and  _247
REMARK  111  A    between atoms: _249  and  _251
REMARK  112  A    between atoms: _251  and  _252
REMARK  113  A    between atoms: _251  and  _254
REMARK  114  A    between atoms: _257  and  _259
REMARK  115  A    between atoms: _259  and  _260
REMARK  116  A    between atoms: _259  and  _262
REMARK  117  A    between atoms: _262  and  _263
REMARK  118  A    between atoms: _266  and  _268
REMARK  119  A    between atoms: _268  and  _269
REMARK  120  A    between atoms: _268  and  _271
REMARK  121  A    between atoms: _271  and  _272
REMARK  122  A    between atoms: _272  and  _273
REMARK  123  A    between atoms: _273  and  _274
REMARK  124  A    between atoms: _274  and  _275
REMARK  125  A    between atoms: _279  and  _281
REMARK  126  A    between atoms: _281  and  _282
REMARK  127  A    between atoms: _281  and  _284
REMARK  128  A    between atoms: _287  and  _289
REMARK  129  A    between atoms: _289  and  _290
REMARK  130  A    between atoms: _289  and  _292
REMARK  131  A    between atoms: _292  and  _293
REMARK  132  A    between atoms: _298  and  _300
REMARK  133  A    between atoms: _300  and  _301
REMARK  134  A    between atoms: _300  and  _303
REMARK  135  A    between atoms: _303  and  _304
REMARK  136  A    between atoms: _307  and  _309
REMARK  137  A    between atoms: _309  and  _310
REMARK  138  A    between atoms: _309  and  _312
REMARK  139  A    between atoms: _312  and  _313
REMARK  140  A    between atoms: _316  and  _318
REMARK  141  A    between atoms: _318  and  _319
REMARK  142  A    between atoms: _318  and  _321
REMARK  143  A    between atoms: _321  and  _322
REMARK  144  A    between atoms: _325  and  _327
REMARK  145  A    between atoms: _327  and  _328
REMARK  146  A    between atoms: _327  and  _330
REMARK  147  A    between atoms: _330  and  _331
REMARK  148  A    between atoms: _334  and  _336
REMARK  149  A    between atoms: _336  and  _337
REMARK  150  A    between atoms: _336  and  _339
REMARK  151  A    between atoms: _339  and  _340
REMARK  152  A    between atoms: _343  and  _345
REMARK  153  A    between atoms: _345  and  _346
REMARK  154  A    between atoms: _345  and  _348
REMARK  155  A    between atoms: _348  and  _349
REMARK  156  A    between atoms: _349  and  _350
REMARK  157  A    between atoms: _350  and  _351
REMARK  158  A    between atoms: _360  and  _362
REMARK  159  A    between atoms: _362  and  _363
REMARK  160  A    between atoms: _362  and  _365
REMARK  161  A    between atoms: _365  and  _366
REMARK  162  A    between atoms: _369  and  _371
REMARK  163  A    between atoms: _371  and  _372
REMARK  164  A    between atoms: _371  and  _374
REMARK  165  A    between atoms: _374  and  _375
REMARK  166  A    between atoms: _375  and  _376
REMARK  167  A    between atoms: _376  and  _377
REMARK  168  A    between atoms: _386  and  _388
REMARK  169  A    between atoms: _388  and  _389
REMARK  170  A    between atoms: _388  and  _391
REMARK  171  A    between atoms: _391  and  _392
REMARK  172  A    between atoms: _398  and  _400
REMARK  173  A    between atoms: _400  and  _401
REMARK  174  A    between atoms: _400  and  _403
REMARK  175  A    between atoms: _403  and  _404
REMARK  176  A    between atoms: _407  and  _409
REMARK  177  A    between atoms: _409  and  _410
REMARK  178  A    between atoms: _409  and  _412
REMARK  179  A    between atoms: _412  and  _413
REMARK  180  A    between atoms: _413  and  _414
REMARK  181  A    between atoms: _414  and  _415
REMARK                            x       y       z     vdW  Elec       q    Type
REMARK                         _______ _______ _______ _____ _____    ______ ____
ROOT
ATOM      1  CB  GLN A   1     -10.968  -7.217 -34.452  0.00  0.00    +0.035 C 
ENDROOT
BRANCH   1   2
ATOM      2  CA  GLN A   1     -10.557  -6.874 -33.016  0.00  0.00    +0.134 C 
BRANCH   2   3
ATOM      3  N   GLN A   1     -11.436  -5.863 -32.427  0.00  0.00    -0.239 NA
ATOM      4  H   GLN A   1     -11.558  -4.946 -32.902  0.00  0.00    +0.142 HD
ENDBRANCH   2   3
BRANCH   2   5
ATOM      5  C   GLN A   1      -9.156  -6.355 -33.120  0.00  0.00    +0.224 C 
ATOM      6  O   GLN A   1      -8.946  -5.175 -33.415  0.00  0.00    -0.287 OA
ENDBRANCH   2   5
ENDBRANCH   1   2
BRANCH   1   7
ATOM      7  CG  GLN A   1     -12.396  -7.601 -34.617  0.00  0.00    +0.087 C 
BRANCH   7   8
ATOM      8  CD  GLN A   1     -12.622  -8.333 -35.917  0.00  0.00    +0.219 C 
ATOM      9  OE1 GLN A   1     -13.126  -9.435 -35.916  0.00  0.00    -0.275 OA
ATOM     10  NE2 GLN A   1     -12.241  -7.719 -37.034  0.00  0.00    -0.329 N 
ATOM     11 HE21 GLN A   1     -11.812  -6.773 -36.987  0.00  0.00    +0.145 HD
ATOM     12 HE22 GLN A   1     -12.372  -8.185 -37.954  0.00  0.00    +0.145 HD
ENDBRANCH   7   8
ENDBRANCH   1   7
TORSDOF 5
REMARK  Name = ../refined-set-2016/3n9r/3n9r_pocket.pdb
REMARK  181 active torsions:
REMARK  status: ('A' for Active; 'I' for Inactive)
REMARK    1  A    between atoms: _1  and  _3
REMARK    2  A    between atoms: _3  and  _4
REMARK    3  A    between atoms: _7  and  _9
REMARK    4  A    between atoms: _9  and  _10
REMARK    5  A    between atoms: _9  and  _12
REMARK    6  A    between atoms: _12  and  _13
REMARK    7  A    between atoms: _18  and  _20
REMARK    8  A    between atoms: _20  and  _21
REMARK    9  A    between atoms: _20  and  _23
REMARK   10  A    between atoms: _23  and  _24
REMARK   11  A    between atoms: _24  and  _25
REMARK   12  A    between atoms: _30  and  _32
REMARK   13  A    between atoms: _32  and  _33
REMARK   14  A    between atoms: _32  and  _35
REMARK   15  A    between atoms: _35  and  _36
REMARK   16  A    between atoms: _38  and  _40
REMARK   17  A    between atoms: _40  and  _41
REMARK   18  A    between atoms: _40  and  _43
REMARK   19  A    between atoms: _43  and  _44
REMARK   20  A    between atoms: _47  and  _49
REMARK   21  A    between atoms: _49  and  _50
REMARK   22  A    between atoms: _49  and  _52
REMARK   23  A    between atoms: _52  and  _53
REMARK   24  A    between atoms: _57  and  ZN_424
REMARK   25  A    between atoms: _58  and  _60
REMARK   26  A    between atoms: _60  and  _61
REMARK   27  A    between atoms: _60  and  _63
REMARK   28  A    between atoms: _63  and  _64
REMARK   29  A    between atoms: _64  and  _65
REMARK   30  A    between atoms: _67  and  _69
REMARK   31  A    between atoms: _69  and  _70
REMARK   32  A    between atoms: _69  and  _72
REMARK   33  A    between atoms: _72  and  _73
REMARK   34  A    between atoms: _76  and  _78
REMARK   35  A    between atoms: _78  and  _79
REMARK   36  A    between atoms: _78  and  _81
REMARK   37  A    between atoms: _81  and  _82
REMARK   38  A    between atoms: _82  and  _83
REMARK   39  A    between atoms: _86  and  _88
REMARK   40  A    between atoms: _88  and  _89
REMARK   41  A    between atoms: _88  and  _91
REMARK   42  A    between atoms: _91  and  _92
REMARK   43  A    between atoms: _92  and  _93
REMARK   44  A    between atoms: _96  and  _98
REMARK   45  A    between atoms: _98  and  _99
REMARK   46  A    between atoms: _98  and  _101
REMARK   47  A    between atoms: _101  and  _102
REMARK   48  A    between atoms: _105  and  _107
REMARK   49  A    between atoms: _107  and  _108
REMARK   50  A    between atoms: _107  and  _110
REMARK   51  A    between atoms: _110  and  _111
REMARK   52  A    between atoms: _114  and  _116
REMARK   53  A    between atoms: _116  and  _117
REMARK   54  A    between atoms: _116  and  _119
REMARK   55  A    between atoms: _119  and  _120
REMARK   56  A    between atoms: _122  and  _124
REMARK   57  A    between atoms: _124  and  _125
REMARK   58  A    between atoms: _124  and  _127
REMARK   59  A    between atoms: _127  and  _128
REMARK   60  A    between atoms: _132  and  ZN_424
REMARK   61  A    between atoms: _133  and  _135
REMARK   62  A    between atoms: _135  and  _136
REMARK   63  A    between atoms: _138  and  _140
REMARK   64  A    between atoms: _140  and  _141
REMARK   65  A    between atoms: _144  and  _146
REMARK   66  A    between atoms: _146  and  _147
REMARK   67  A    between atoms: _146  and  _149
REMARK   68  A    between atoms: _149  and  _150
REMARK   69  A    between atoms: _156  and  _158
REMARK   70  A    between atoms: _158  and  _159
REMARK   71  A    between atoms: _158  and  _161
REMARK   72  A    between atoms: _161  and  _162
REMARK   73  A    between atoms: _162  and  _163
REMARK   74  A    between atoms: _163  and  _164
REMARK   75  A    between atoms: _164  and  _165
REMARK   76  A    between atoms: _169  and  _171
REMARK   77  A    between atoms: _171  and  _172
REMARK   78  A    between atoms: _171  and  _174
REMARK   79  A    between atoms: _177  and  _179
REMARK   80  A    between atoms: _179  and  _180
REMARK   81  A    between atoms: _179  and  _182
REMARK   82  A    between atoms: _182  and  _183
REMARK   83  A    between atoms: _186  and  _188
REMARK   84  A    between atoms: _188  and  _189
REMARK   85  A    between atoms: _188  and  _191
REMARK   86  A    between atoms: _191  and  _192
REMARK   87  A    between atoms: _193  and  ZN_424
REMARK   88  A    between atoms: _197  and  _199
REMARK   89  A    between atoms: _199  and  _200
REMARK   90  A    between atoms: _202  and  _204
REMARK   91  A    between atoms: _204  and  _205
REMARK   92  A    between atoms: _208  and  _210
REMARK   93  A    between atoms: _210  and  _211
REMARK   94  A    between atoms: _210  and  _213
REMARK   95  A    between atoms: _213  and  _214
REMARK   96  A    between atoms: _216  and  _218
REMARK   97  A    between atoms: _218  and  _219
REMARK   98  A    between atoms: _222  and  _224
REMARK   99  A    between atoms: _224  and  _225
REMARK  100  A    between atoms: _224  and  _227
REMARK  101  A    between atoms: _227  and  _228
REMARK  102  A    between atoms: _231  and  _233
REMARK  103  A    between atoms: _233  and  _234
REMARK  104  A    between atoms: _233  and  _236
REMARK  105  A    between atoms: _236  and  _237
REMARK  106  A    between atoms: _237  and  _238
REMARK  107  A    between atoms: _238  and  _239
REMARK  108  A    between atoms: _239  and  _240
REMARK  109  A    between atoms: _244  and  _246
REMARK  110  A    between atoms: _246  and  _247
REMARK  111  A    between atoms: _249  and  _251
REMARK  112  A    between atoms: _251  and  _252
REMARK  113  A    between atoms: _251  and  _254
REMARK  114  A    between atoms: _257  and  _259
REMARK  115  A    between atoms: _259  and  _260
REMARK  116  A    between atoms: _259  and  _262
REMARK  117  A    between atoms: _262  and  _263
REMARK  118  A    between atoms: _266  and  _268
REMARK  119  A    between atoms: _268  and  _269
REMARK  120  A    between atoms: _268  and  _271
REMARK  121  A    between atoms: _271  and  _272
REMARK  122  A    between atoms: _272  and  _273
REMARK  123  A    between atoms: _273  and  _274
REMARK  124  A    between atoms: _274  and  _275
REMARK  125  A    between atoms: _279  and  _281
REMARK  126  A    between atoms: _281  and  _282
REMARK  127  A    between atoms: _281  and  _284
REMARK  128  A    between atoms: _287  and  _289
REMARK  129  A    between atoms: _289  and  _290
REMARK  130  A    between atoms: _289  and  _292
REMARK  131  A    between atoms: _292  and  _293
REMARK  132  A    between atoms: _298  and  _300
REMARK  133  A    between atoms: _300  and  _301
REMARK  134  A    between atoms: _300  and  _303
REMARK  135  A    between atoms: _303  and  _304
REMARK  136  A    between atoms: _307  and  _309
REMARK  137  A    between atoms: _309  and  _310
REMARK  138  A    between atoms: _309  and  _312
REMARK  139  A    between atoms: _312  and  _313
REMARK  140  A    between atoms: _316  and  _318
REMARK  141  A    between atoms: _318  and  _319
REMARK  142  A    between atoms: _318  and  _321
REMARK  143  A    between atoms: _321  and  _322
REMARK  144  A    between atoms: _325  and  _327
REMARK  145  A    between atoms: _327  and  _328
REMARK  146  A    between atoms: _327  and  _330
REMARK  147  A    between atoms: _330  and  _331
REMARK  148  A    between atoms: _334  and  _336
REMARK  149  A    between atoms: _336  and  _337
REMARK  150  A    between atoms: _336  and  _339
REMARK  151  A    between atoms: _339  and  _340
REMARK  152  A    between atoms: _343  and  _345
REMARK  153  A    between atoms: _345  and  _346
REMARK  154  A    between atoms: _345  and  _348
REMARK  155  A    between atoms: _348  and  _349
REMARK  156  A    between atoms: _349  and  _350
REMARK  157  A    between atoms: _350  and  _351
REMARK  158  A    between atoms: _360  and  _362
REMARK  159  A    between atoms: _362  and  _363
REMARK  160  A    between atoms: _362  and  _365
REMARK  161  A    between atoms: _365  and  _366
REMARK  162  A    between atoms: _369  and  _371
REMARK  163  A    between atoms: _371  and  _372
REMARK  164  A    between atoms: _371  and  _374
REMARK  165  A    between atoms: _374  and  _375
REMARK  166  A    between atoms: _375  and  _376
REMARK  167  A    between atoms: _376  and  _377
REMARK  168  A    between atoms: _386  and  _388
REMARK  169  A    between atoms: _388  and  _389
REMARK  170  A    between atoms: _388  and  _391
REMARK  171  A    between atoms: _391  and  _392
REMARK  172  A    between atoms: _398  and  _400
REMARK  173  A    between atoms: _400  and  _401
REMARK  174  A    between atoms: _400  and  _403
REMARK  175  A    between atoms: _403  and  _404
REMARK  176  A    between atoms: _407  and  _409
REMARK  177  A    between atoms: _409  and  _410
REMARK  178  A    between atoms: _409  and  _412
REMARK  179  A    between atoms: _412  and  _413
REMARK  180  A    between atoms: _413  and  _414
REMARK  181  A    between atoms: _414  and  _415
REMARK                            x       y       z     vdW  Elec       q    Type
REMARK                         _______ _______ _______ _____ _____    ______ ____
ROOT
ATOM      1  CA  SER A   1      -4.928  -8.593 -36.021  0.00  0.00    +0.163 C 
ENDROOT
BRANCH   1   2
ATOM      2  N   SER A   1      -5.626  -7.641 -35.172  0.00  0.00    -0.237 NA
ATOM      3  H   SER A   1      -5.672  -6.642 -35.457  0.00  0.00    +0.142 HD
ENDBRANCH   1   2
BRANCH   1   4
ATOM      4  CB  SER A   1      -3.565  -8.900 -35.418  0.00  0.00    +0.227 C 
ATOM      5  OG  SER A   1      -3.140  -8.239 -34.488  0.00  0.00    -0.287 OA
ENDBRANCH   1   4
BRANCH   1   6
ATOM      6  C   SER A   1      -4.713  -8.010 -37.412  0.00  0.00    +0.162 C 
BRANCH   6   7
ATOM      7  O   SER A   1      -3.808  -6.934 -37.329  0.00  0.00    -0.380 OA
ATOM      8  H   SER A   1      -3.666  -6.553 -38.232  0.00  0.00    +0.211 HD
ENDBRANCH   6   7
ENDBRANCH   1   6
TORSDOF 4
REMARK  Name = ../refined-set-2016/3n9r/3n9r_pocket.pdb
REMARK  181 active torsions:
REMARK  status: ('A' for Active; 'I' for Inactive)
REMARK    1  A    between atoms: _1  and  _3
REMARK    2  A    between atoms: _3  and  _4
REMARK    3  A    between atoms: _7  and  _9
REMARK    4  A    between atoms: _9  and  _10
REMARK    5  A    between atoms: _9  and  _12
REMARK    6  A    between atoms: _12  and  _13
REMARK    7  A    between atoms: _18  and  _20
REMARK    8  A    between atoms: _20  and  _21
REMARK    9  A    between atoms: _20  and  _23
REMARK   10  A    between atoms: _23  and  _24
REMARK   11  A    between atoms: _24  and  _25
REMARK   12  A    between atoms: _30  and  _32
REMARK   13  A    between atoms: _32  and  _33
REMARK   14  A    between atoms: _32  and  _35
REMARK   15  A    between atoms: _35  and  _36
REMARK   16  A    between atoms: _38  and  _40
REMARK   17  A    between atoms: _40  and  _41
REMARK   18  A    between atoms: _40  and  _43
REMARK   19  A    between atoms: _43  and  _44
REMARK   20  A    between atoms: _47  and  _49
REMARK   21  A    between atoms: _49  and  _50
REMARK   22  A    between atoms: _49  and  _52
REMARK   23  A    between atoms: _52  and  _53
REMARK   24  A    between atoms: _57  and  ZN_424
REMARK   25  A    between atoms: _58  and  _60
REMARK   26  A    between atoms: _60  and  _61
REMARK   27  A    between atoms: _60  and  _63
REMARK   28  A    between atoms: _63  and  _64
REMARK   29  A    between atoms: _64  and  _65
REMARK   30  A    between atoms: _67  and  _69
REMARK   31  A    between atoms: _69  and  _70
REMARK   32  A    between atoms: _69  and  _72
REMARK   33  A    between atoms: _72  and  _73
REMARK   34  A    between atoms: _76  and  _78
REMARK   35  A    between atoms: _78  and  _79
REMARK   36  A    between atoms: _78  and  _81
REMARK   37  A    between atoms: _81  and  _82
REMARK   38  A    between atoms: _82  and  _83
REMARK   39  A    between atoms: _86  and  _88
REMARK   40  A    between atoms: _88  and  _89
REMARK   41  A    between atoms: _88  and  _91
REMARK   42  A    between atoms: _91  and  _92
REMARK   43  A    between atoms: _92  and  _93
REMARK   44  A    between atoms: _96  and  _98
REMARK   45  A    between atoms: _98  and  _99
REMARK   46  A    between atoms: _98  and  _101
REMARK   47  A    between atoms: _101  and  _102
REMARK   48  A    between atoms: _105  and  _107
REMARK   49  A    between atoms: _107  and  _108
REMARK   50  A    between atoms: _107  and  _110
REMARK   51  A    between atoms: _110  and  _111
REMARK   52  A    between atoms: _114  and  _116
REMARK   53  A    between atoms: _116  and  _117
REMARK   54  A    between atoms: _116  and  _119
REMARK   55  A    between atoms: _119  and  _120
REMARK   56  A    between atoms: _122  and  _124
REMARK   57  A    between atoms: _124  and  _125
REMARK   58  A    between atoms: _124  and  _127
REMARK   59  A    between atoms: _127  and  _128
REMARK   60  A    between atoms: _132  and  ZN_424
REMARK   61  A    between atoms: _133  and  _135
REMARK   62  A    between atoms: _135  and  _136
REMARK   63  A    between atoms: _138  and  _140
REMARK   64  A    between atoms: _140  and  _141
REMARK   65  A    between atoms: _144  and  _146
REMARK   66  A    between atoms: _146  and  _147
REMARK   67  A    between atoms: _146  and  _149
REMARK   68  A    between atoms: _149  and  _150
REMARK   69  A    between atoms: _156  and  _158
REMARK   70  A    between atoms: _158  and  _159
REMARK   71  A    between atoms: _158  and  _161
REMARK   72  A    between atoms: _161  and  _162
REMARK   73  A    between atoms: _162  and  _163
REMARK   74  A    between atoms: _163  and  _164
REMARK   75  A    between atoms: _164  and  _165
REMARK   76  A    between atoms: _169  and  _171
REMARK   77  A    between atoms: _171  and  _172
REMARK   78  A    between atoms: _171  and  _174
REMARK   79  A    between atoms: _177  and  _179
REMARK   80  A    between atoms: _179  and  _180
REMARK   81  A    between atoms: _179  and  _182
REMARK   82  A    between atoms: _182  and  _183
REMARK   83  A    between atoms: _186  and  _188
REMARK   84  A    between atoms: _188  and  _189
REMARK   85  A    between atoms: _188  and  _191
REMARK   86  A    between atoms: _191  and  _192
REMARK   87  A    between atoms: _193  and  ZN_424
REMARK   88  A    between atoms: _197  and  _199
REMARK   89  A    between atoms: _199  and  _200
REMARK   90  A    between atoms: _202  and  _204
REMARK   91  A    between atoms: _204  and  _205
REMARK   92  A    between atoms: _208  and  _210
REMARK   93  A    between atoms: _210  and  _211
REMARK   94  A    between atoms: _210  and  _213
REMARK   95  A    between atoms: _213  and  _214
REMARK   96  A    between atoms: _216  and  _218
REMARK   97  A    between atoms: _218  and  _219
REMARK   98  A    between atoms: _222  and  _224
REMARK   99  A    between atoms: _224  and  _225
REMARK  100  A    between atoms: _224  and  _227
REMARK  101  A    between atoms: _227  and  _228
REMARK  102  A    between atoms: _231  and  _233
REMARK  103  A    between atoms: _233  and  _234
REMARK  104  A    between atoms: _233  and  _236
REMARK  105  A    between atoms: _236  and  _237
REMARK  106  A    between atoms: _237  and  _238
REMARK  107  A    between atoms: _238  and  _239
REMARK  108  A    between atoms: _239  and  _240
REMARK  109  A    between atoms: _244  and  _246
REMARK  110  A    between atoms: _246  and  _247
REMARK  111  A    between atoms: _249  and  _251
REMARK  112  A    between atoms: _251  and  _252
REMARK  113  A    between atoms: _251  and  _254
REMARK  114  A    between atoms: _257  and  _259
REMARK  115  A    between atoms: _259  and  _260
REMARK  116  A    between atoms: _259  and  _262
REMARK  117  A    between atoms: _262  and  _263
REMARK  118  A    between atoms: _266  and  _268
REMARK  119  A    between atoms: _268  and  _269
REMARK  120  A    between atoms: _268  and  _271
REMARK  121  A    between atoms: _271  and  _272
REMARK  122  A    between atoms: _272  and  _273
REMARK  123  A    between atoms: _273  and  _274
REMARK  124  A    between atoms: _274  and  _275
REMARK  125  A    between atoms: _279  and  _281
REMARK  126  A    between atoms: _281  and  _282
REMARK  127  A    between atoms: _281  and  _284
REMARK  128  A    between atoms: _287  and  _289
REMARK  129  A    between atoms: _289  and  _290
REMARK  130  A    between atoms: _289  and  _292
REMARK  131  A    between atoms: _292  and  _293
REMARK  132  A    between atoms: _298  and  _300
REMARK  133  A    between atoms: _300  and  _301
REMARK  134  A    between atoms: _300  and  _303
REMARK  135  A    between atoms: _303  and  _304
REMARK  136  A    between atoms: _307  and  _309
REMARK  137  A    between atoms: _309  and  _310
REMARK  138  A    between atoms: _309  and  _312
REMARK  139  A    between atoms: _312  and  _313
REMARK  140  A    between atoms: _316  and  _318
REMARK  141  A    between atoms: _318  and  _319
REMARK  142  A    between atoms: _318  and  _321
REMARK  143  A    between atoms: _321  and  _322
REMARK  144  A    between atoms: _325  and  _327
REMARK  145  A    between atoms: _327  and  _328
REMARK  146  A    between atoms: _327  and  _330
REMARK  147  A    between atoms: _330  and  _331
REMARK  148  A    between atoms: _334  and  _336
REMARK  149  A    between atoms: _336  and  _337
REMARK  150  A    between atoms: _336  and  _339
REMARK  151  A    between atoms: _339  and  _340
REMARK  152  A    between atoms: _343  and  _345
REMARK  153  A    between atoms: _345  and  _346
REMARK  154  A    between atoms: _345  and  _348
REMARK  155  A    between atoms: _348  and  _349
REMARK  156  A    between atoms: _349  and  _350
REMARK  157  A    between atoms: _350  and  _351
REMARK  158  A    between atoms: _360  and  _362
REMARK  159  A    between atoms: _362  and  _363
REMARK  160  A    between atoms: _362  and  _365
REMARK  161  A    between atoms: _365  and  _366
REMARK  162  A    between atoms: _369  and  _371
REMARK  163  A    between atoms: _371  and  _372
REMARK  164  A    between atoms: _371  and  _374
REMARK  165  A    between atoms: _374  and  _375
REMARK  166  A    between atoms: _375  and  _376
REMARK  167  A    between atoms: _376  and  _377
REMARK  168  A    between atoms: _386  and  _388
REMARK  169  A    between atoms: _388  and  _389
REMARK  170  A    between atoms: _388  and  _391
REMARK  171  A    between atoms: _391  and  _392
REMARK  172  A    between atoms: _398  and  _400
REMARK  173  A    between atoms: _400  and  _401
REMARK  174  A    between atoms: _400  and  _403
REMARK  175  A    between atoms: _403  and  _404
REMARK  176  A    between atoms: _407  and  _409
REMARK  177  A    between atoms: _409  and  _410
REMARK  178  A    between atoms: _409  and  _412
REMARK  179  A    between atoms: _412  and  _413
REMARK  180  A    between atoms: _413  and  _414
REMARK  181  A    between atoms: _414  and  _415
REMARK                            x       y       z     vdW  Elec       q    Type
REMARK                         _______ _______ _______ _____ _____    ______ ____
ROOT
ATOM      1 ZN   UNK A   2     -10.706 -10.676 -42.580  0.00  0.00    +0.000 Zn
ENDROOT
BRANCH   1   2
ATOM      2  N   UNK A   2     -10.141 -10.468 -44.570  0.00  0.00    +0.000 N 
ATOM      3  C   UNK A   2      -9.114 -11.109 -45.099  0.00  0.00    +0.000 A 
ATOM      4  N   UNK A   2      -8.633 -10.377 -46.086  0.00  0.00    +0.000 NA
ATOM      5  C   UNK A   2      -9.380  -9.227 -46.213  0.00  0.00    +0.000 A 
ATOM      6  C   UNK A   2     -10.331  -9.290 -45.248  0.00  0.00    +0.000 A 
BRANCH   5   7
ATOM      7  C   UNK A   2      -9.094  -8.184 -47.246  0.00  0.00    +0.000 C 
BRANCH   7   8
ATOM      8  C   UNK A   2     -10.347  -7.659 -47.944  0.00  0.00    +0.000 C 
BRANCH   8   9
ATOM      9  C   UNK A   2      -9.978  -6.408 -48.727  0.00  0.00    +0.000 C 
ATOM     10  N   GLY A   4     -10.062  -5.250 -48.075  0.00  0.00    +0.000 N 
ATOM     11  H   GLY A   4     -10.535  -5.220 -47.149  0.00  0.00    +0.000 HD
ATOM     12  O   UNK A   2      -9.595  -6.498 -49.890  0.00  0.00    +0.000 OA
BRANCH  10  13
ATOM     13  CA  GLY A   4      -9.505  -4.023 -48.632  0.00  0.00    +0.000 C 
BRANCH  13  14
ATOM     14  C   GLY A   4     -10.470  -3.152 -49.414  0.00  0.00    +0.000 C 
ATOM     15  O   GLY A   4     -11.665  -3.434 -49.487  0.00  0.00    +0.000 OA
ATOM     16  N   ALA A   5      -9.951  -2.082 -50.017  0.00  0.00    +0.000 N 
ATOM     17  H   ALA A   5      -8.919  -1.965 -50.061  0.00  0.00    +0.000 HD
BRANCH  16  18
ATOM     18  CA  ALA A   5     -10.820  -1.074 -50.616  0.00  0.00    +0.000 C 
ATOM     19  CB  ALA A   5     -10.139   0.314 -50.569  0.00  0.00    +0.000 C 
BRANCH  18  20
ATOM     20  C   ALA A   5     -11.255  -1.408 -52.056  0.00  0.00    +0.000 C 
ATOM     21  N   PHE A   6     -10.751  -2.509 -52.626  0.00  0.00    +0.000 N 
ATOM     22  H   PHE A   6     -10.192  -3.173 -52.052  0.00  0.00    +0.000 HD
ATOM     23  O   ALA A   5     -12.059  -0.672 -52.634  0.00  0.00    +0.000 OA
BRANCH  21  24
ATOM     24  CA  PHE A   6     -10.975  -2.795 -54.051  0.00  0.00    +0.000 C 
BRANCH  24  25
ATOM     25  C   PHE A   6     -11.690  -4.120 -54.215  0.00  0.00    +0.000 C 
ATOM     26  N   LYS A   7     -12.950  -4.176 -53.788  0.00  0.00    +0.000 N 
ATOM     27  H   LYS A   7     -13.457  -3.303 -53.541  0.00  0.00    +0.000 HD
ATOM     28  O   PHE A   6     -11.109  -5.092 -54.699  0.00  0.00    +0.000 OA
BRANCH  26  29
ATOM     29  CA  LYS A   7     -13.615  -5.469 -53.669  0.00  0.00    +0.000 C 
BRANCH  29  30
ATOM     30  C   LYS A   7     -14.251  -5.932 -54.971  0.00  0.00    +0.000 C 
ATOM     31  O   LYS A   7     -14.449  -7.131 -55.167  0.00  0.00    +0.000 OA
ENDBRANCH  29  30
BRANCH  29  32
ATOM     32  CB  LYS A   7     -14.688  -5.449 -52.584  0.00  0.00    +0.000 C 
BRANCH  32  33
ATOM     33  CG  LYS A   7     -14.187  -4.924 -51.240  0.00  0.00    +0.000 C 
BRANCH  33  34
ATOM     34  CD  LYS A   7     -15.227  -5.118 -50.123  0.00  0.00    +0.000 C 
BRANCH  34  35
ATOM     35  CE  LYS A   7     -14.751  -4.443 -48.829  0.00  0.00    +0.000 C 
BRANCH  35  36
ATOM     36  NZ  LYS A   7     -13.467  -5.042 -48.333  0.00  0.00    +0.000 N 
ATOM     37  HZ1 LYS A   7     -13.177  -4.561 -47.458  0.00  0.00    +0.000 HD
ATOM     38  HZ2 LYS A   7     -13.609  -6.055 -48.143  0.00  0.00    +0.000 HD
ATOM     39  HZ3 LYS A   7     -12.729  -4.924 -49.056  0.00  0.00    +0.000 HD
ENDBRANCH  35  36
ENDBRANCH  34  35
ENDBRANCH  33  34
ENDBRANCH  32  33
ENDBRANCH  29  32
ENDBRANCH  26  29
ENDBRANCH  24  25
BRANCH  24  40
ATOM     40  CB  PHE A   6      -9.623  -2.774 -54.787  0.00  0.00    +0.000 C 
BRANCH  40  41
ATOM     41  CG  PHE A   6      -8.853  -1.516 -54.525  0.00  0.00    +0.000 A 
ATOM     42  CD2 PHE A   6      -7.995  -1.432 -53.434  0.00  0.00    +0.000 A 
ATOM     43  CE2 PHE A   6      -7.311  -0.257 -53.154  0.00  0.00    +0.000 A 
ATOM     44  CZ  PHE A   6      -7.510   0.863 -53.945  0.00  0.00    +0.000 A 
ATOM     45  CE1 PHE A   6      -8.377   0.803 -55.024  0.00  0.00    +0.000 A 
ATOM     46  CD1 PHE A   6      -9.057  -0.385 -55.303  0.00  0.00    +0.000 A 
ENDBRANCH  40  41
ENDBRANCH  24  40
ENDBRANCH  21  24
ENDBRANCH  18  20
ENDBRANCH  16  18
ENDBRANCH  13  14
ENDBRANCH  10  13
ENDBRANCH   8   9
BRANCH   8  47
ATOM     47  N   UNK A   2     -10.904  -8.704 -48.784  0.00  0.00    +0.000 N 
ATOM     48  H   UNK A   2     -10.349  -9.564 -48.968  0.00  0.00    +0.000 HD
ATOM     49  C   UNK A   2     -12.111  -8.577 -49.320  0.00  0.00    +0.000 C 
ATOM     50  O   UNK A   2     -12.816  -7.593 -49.138  0.00  0.00    +0.000 OA
BRANCH  49  51
ATOM     51  C   UNK A   2     -12.599  -9.727 -50.179  0.00  0.00    +0.000 C 
BRANCH  51  52
ATOM     52  N   UNK A   2     -14.050  -9.608 -50.291  0.00  0.00    +0.000 N 
ATOM     53  H   UNK A   2     -14.492  -8.671 -50.200  0.00  0.00    +0.000 HD
ATOM     54  C   THR A   1     -14.815 -10.665 -50.505  0.00  0.00    +0.000 C 
ATOM     55  O   THR A   1     -14.357 -11.783 -50.735  0.00  0.00    +0.000 OA
BRANCH  54  56
ATOM     56  CA  THR A   1     -16.322 -10.409 -50.433  0.00  0.00    +0.000 C 
BRANCH  56  57
ATOM     57  N   THR A   1     -17.060 -11.588 -50.875  0.00  0.00    +0.000 NA
ATOM     58  H   THR A   1     -17.430 -12.261 -50.174  0.00  0.00    +0.000 HD
ENDBRANCH  56  57
BRANCH  56  59
ATOM     59  CB  THR A   1     -16.661 -10.001 -48.992  0.00  0.00    +0.000 C 
ATOM     60  CG2 THR A   1     -18.151  -9.615 -48.852  0.00  0.00    +0.000 C 
BRANCH  59  61
ATOM     61  OG1 THR A   1     -16.346 -11.080 -48.107  0.00  0.00    +0.000 OA
ATOM     62  HG1 THR A   1     -16.564 -10.818 -47.178  0.00  0.00    +0.000 HD
ENDBRANCH  59  61
ENDBRANCH  56  59
ENDBRANCH  54  56
ENDBRANCH  51  52
BRANCH  51  63
ATOM     63  C   UNK A   2     -11.942  -9.685 -51.557  0.00  0.00    +0.000 C 
BRANCH  63  64
ATOM     64  O   UNK A   2     -12.488  -8.646 -52.347  0.00  0.00    +0.000 OA
ATOM     65  H   UNK A   2     -13.460  -8.796 -52.462  0.00  0.00    +0.000 HD
ENDBRANCH  63  64
ENDBRANCH  51  63
ENDBRANCH  49  51
ENDBRANCH   8  47
ENDBRANCH   7   8
ENDBRANCH   5   7
ENDBRANCH   1   2
BRANCH   1  68
ATOM     66  C   UNK A   2      -7.498 -12.711 -40.651  0.00  0.00    +0.000 A 
ATOM     67  C   UNK A   2      -8.250 -11.603 -40.866  0.00  0.00    +0.000 A 
ATOM     68  N   UNK A   2      -9.134 -11.908 -41.869  0.00  0.00    +0.000 N 
ATOM     69  C   UNK A   2      -8.953 -13.161 -42.246  0.00  0.00    +0.000 A 
ATOM     70  N   UNK A   2      -7.968 -13.666 -41.523  0.00  0.00    +0.000 NA
BRANCH  66  71
ATOM     71  C   UNK A   2      -6.395 -12.985 -39.672  0.00  0.00    +0.000 C 
BRANCH  71  72
ATOM     72  C   UNK A   2      -6.846 -13.856 -38.493  0.00  0.00    +0.000 C 
BRANCH  72  75
ATOM     73  C   THR A   1      -7.381 -12.115 -36.825  0.00  0.00    +0.000 C 
ATOM     74  O   THR A   1      -6.202 -11.786 -36.687  0.00  0.00    +0.000 OA
ATOM     75  N   UNK A   2      -7.765 -13.118 -37.613  0.00  0.00    +0.000 N 
ATOM     76  H   UNK A   2      -8.768 -13.394 -37.606  0.00  0.00    +0.000 HD
BRANCH  73  77
ATOM     77  CA  THR A   1      -8.496 -11.392 -36.024  0.00  0.00    +0.000 C 
BRANCH  77  78
ATOM     78  N   THR A   1      -8.117 -11.340 -34.618  0.00  0.00    +0.000 NA
ATOM     79  H   THR A   1      -7.650 -10.480 -34.265  0.00  0.00    +0.000 HD
ENDBRANCH  77  78
BRANCH  77  80
ATOM     80  CB  THR A   1      -8.670  -9.939 -36.494  0.00  0.00    +0.000 C 
BRANCH  80  81
ATOM     81  CG  THR A   1      -9.239  -9.820 -37.882  0.00  0.00    +0.000 C 
ATOM     82  OD2 THR A   1      -9.930 -10.752 -38.333  0.00  0.00    +0.000 OA
ATOM     83  OD1 THR A   1      -9.006  -8.760 -38.516  0.00  0.00    +0.000 OA
ENDBRANCH  80  81
ENDBRANCH  77  80
ENDBRANCH  73  77
ENDBRANCH  72  75
BRANCH  72  84
ATOM     84  C   UNK A   2      -5.630 -14.421 -37.756  0.00  0.00    +0.000 C 
ATOM     85  O   UNK A   2      -4.492 -14.197 -38.155  0.00  0.00    +0.000 OA
ENDBRANCH  72  84
ENDBRANCH  71  72
ENDBRANCH  66  71
ENDBRANCH   1  68
BRANCH   1  86
ATOM     86  N   UNK A   2     -12.149 -12.063 -42.010  0.00  0.00    +0.000 N 
ATOM     87  C   UNK A   2     -12.044 -12.721 -40.870  0.00  0.00    +0.000 A 
ATOM     88  N   UNK A   2     -13.177 -13.368 -40.657  0.00  0.00    +0.000 NA
ATOM     89  C   UNK A   2     -14.038 -13.116 -41.691  0.00  0.00    +0.000 A 
ATOM     90  C   UNK A   2     -13.384 -12.313 -42.564  0.00  0.00    +0.000 A 
BRANCH  90  91
ATOM     91  C   UNK A   2     -13.831 -11.692 -43.843  0.00  0.00    +0.000 C 
BRANCH  91  92
ATOM     92  C   UNK A   2     -14.985 -10.716 -43.657  0.00  0.00    +0.000 C 
BRANCH  92  93
ATOM     93  C   UNK A   2     -15.069  -9.793 -44.848  0.00  0.00    +0.000 C 
ATOM     94  N   GLY A   4     -14.206  -8.782 -44.885  0.00  0.00    +0.000 N 
ATOM     95  H   GLY A   4     -13.568  -8.625 -44.079  0.00  0.00    +0.000 HD
ATOM     96  O   UNK A   2     -15.909  -9.992 -45.724  0.00  0.00    +0.000 OA
BRANCH  94  97
ATOM     97  CA  GLY A   4     -14.139  -7.891 -46.035  0.00  0.00    +0.000 C 
BRANCH  97  98
ATOM     98  C   GLY A   4     -15.425  -7.119 -46.228  0.00  0.00    +0.000 C 
ATOM     99  N   ALA A   5     -16.011  -6.659 -45.113  0.00  0.00    +0.000 N 
ATOM    100  H   ALA A   5     -15.500  -6.730 -44.210  0.00  0.00    +0.000 HD
ATOM    101  O   GLY A   4     -15.873  -6.939 -47.367  0.00  0.00    +0.000 OA
BRANCH  99 102
ATOM    102  CA  ALA A   5     -17.344  -6.061 -45.126  0.00  0.00    +0.000 C 
ATOM    103  CB  ALA A   5     -18.160  -6.560 -43.917  0.00  0.00    +0.000 C 
BRANCH 102 104
ATOM    104  C   ALA A   5     -17.380  -4.529 -45.167  0.00  0.00    +0.000 C 
ATOM    105  O   ALA A   5     -18.454  -3.934 -45.020  0.00  0.00    +0.000 OA
ATOM    106  N   PHE A   6     -16.240  -3.875 -45.393  0.00  0.00    +0.000 N 
ATOM    107  H   PHE A   6     -15.346  -4.395 -45.502  0.00  0.00    +0.000 HD
BRANCH 106 108
ATOM    108  CA  PHE A   6     -16.266  -2.412 -45.485  0.00  0.00    +0.000 C 
BRANCH 108 109
ATOM    109  C   PHE A   6     -17.137  -1.964 -46.653  0.00  0.00    +0.000 C 
ATOM    110  N   LYS A   7     -17.786  -0.809 -46.500  0.00  0.00    +0.000 N 
ATOM    111  H   LYS A   7     -17.647  -0.267 -45.623  0.00  0.00    +0.000 HD
ATOM    112  O   PHE A   6     -17.218  -2.647 -47.663  0.00  0.00    +0.000 OA
BRANCH 110 113
ATOM    113  CA  LYS A   7     -18.690  -0.276 -47.526  0.00  0.00    +0.000 C 
ATOM    114  CB  LYS A   7     -19.935   0.303 -46.847  0.00  0.00    +0.000 C 
BRANCH 113 115
ATOM    115  C   LYS A   7     -18.070   0.798 -48.434  0.00  0.00    +0.000 C 
ATOM    116  N   ILE A   8     -16.997   1.423 -47.970  0.00  0.00    +0.000 N 
ATOM    117  H   ILE A   8     -16.495   1.011 -47.158  0.00  0.00    +0.000 HD
ATOM    118  O   LYS A   7     -18.562   1.043 -49.533  0.00  0.00    +0.000 OA
BRANCH 116 119
ATOM    119  CA  ILE A   8     -16.488   2.666 -48.550  0.00  0.00    +0.000 C 
BRANCH 119 120
ATOM    120  CB  ILE A   8     -15.669   2.422 -49.825  0.00  0.00    +0.000 C 
ATOM    121  CG2 ILE A   8     -14.756   3.605 -50.086  0.00  0.00    +0.000 C 
BRANCH 120 122
ATOM    122  CG1 ILE A   8     -14.859   1.132 -49.703  0.00  0.00    +0.000 C 
ATOM    123  CD1 ILE A   8     -13.788   1.177 -48.645  0.00  0.00    +0.000 C 
ENDBRANCH 120 122
ENDBRANCH 119 120
BRANCH 119 124
ATOM    124  C   ILE A   8     -17.629   3.638 -48.865  0.00  0.00    +0.000 C 
ATOM    125  O   ILE A   8     -17.939   3.900 -50.038  0.00  0.00    +0.000 OA
ENDBRANCH 119 124
ENDBRANCH 116 119
ENDBRANCH 113 115
ENDBRANCH 110 113
ENDBRANCH 108 109
BRANCH 108 126
ATOM    126  CB  PHE A   6     -14.853  -1.840 -45.623  0.00  0.00    +0.000 C 
BRANCH 126 127
ATOM    127  O   PHE A   6     -14.206  -1.836 -44.362  0.00  0.00    +0.000 OA
ATOM    128  H   PHE A   6     -14.151  -2.763 -44.018  0.00  0.00    +0.000 HD
ENDBRANCH 126 127
ENDBRANCH 108 126
ENDBRANCH 106 108
ENDBRANCH 102 104
ENDBRANCH  99 102
ENDBRANCH  97  98
ENDBRANCH  94  97
ENDBRANCH  92  93
BRANCH  92 129
ATOM    129  N   UNK A   2     -16.249 -11.440 -43.558  0.00  0.00    +0.000 N 
ATOM    130  C   UNK A   2     -17.276 -10.936 -42.877  0.00  0.00    +0.000 C 
ATOM    131  O   UNK A   2     -17.201  -9.892 -42.241  0.00  0.00    +0.000 OA
ATOM    132  H   UNK A   2     -16.349 -12.363 -44.026  0.00  0.00    +0.000 HD
BRANCH 130 133
ATOM    133  C   UNK A   2     -18.582 -11.709 -42.935  0.00  0.00    +0.000 C 
BRANCH 133 134
ATOM    134  N   UNK A   2     -18.903 -12.255 -41.621  0.00  0.00    +0.000 N 
ATOM    135  H   UNK A   2     -19.299 -11.630 -40.890  0.00  0.00    +0.000 HD
ATOM    136  C   THR A   1     -18.698 -13.537 -41.343  0.00  0.00    +0.000 C 
ATOM    137  O   THR A   1     -18.276 -14.339 -42.173  0.00  0.00    +0.000 OA
BRANCH 136 138
ATOM    138  CA  THR A   1     -18.994 -13.981 -39.916  0.00  0.00    +0.000 C 
BRANCH 138 139
ATOM    139  CB  THR A   1     -17.658 -14.275 -39.211  0.00  0.00    +0.000 C 
ATOM    140  CG2 THR A   1     -17.910 -14.873 -37.806  0.00  0.00    +0.000 C 
ATOM    141  CG1 THR A   1     -16.805 -13.015 -39.138  0.00  0.00    +0.000 C 
ENDBRANCH 138 139
BRANCH 138 142
ATOM    142  N   THR A   1     -19.844 -15.163 -39.897  0.00  0.00    +0.000 NA
ATOM    143  H   THR A   1     -19.525 -16.023 -40.387  0.00  0.00    +0.000 HD
ENDBRANCH 138 142
ENDBRANCH 136 138
ENDBRANCH 133 134
BRANCH 133 144
ATOM    144  C   UNK A   2     -19.710 -10.788 -43.412  0.00  0.00    +0.000 C 
BRANCH 144 145
ATOM    145  C   UNK A   2     -19.604 -10.329 -44.866  0.00  0.00    +0.000 C 
ATOM    146  C   UNK A   2     -20.675  -9.286 -45.157  0.00  0.00    +0.000 C 
ATOM    147  C   UNK A   2     -19.733 -11.520 -45.802  0.00  0.00    +0.000 C 
ENDBRANCH 144 145
ENDBRANCH 133 144
ENDBRANCH 130 133
ENDBRANCH  92 129
ENDBRANCH  91  92
ENDBRANCH  90  91
ENDBRANCH   1  86
TORSDOF 63
REMARK  Name = ../refined-set-2016/3n9r/3n9r_pocket.pdb
REMARK  181 active torsions:
REMARK  status: ('A' for Active; 'I' for Inactive)
REMARK    1  A    between atoms: _1  and  _3
REMARK    2  A    between atoms: _3  and  _4
REMARK    3  A    between atoms: _7  and  _9
REMARK    4  A    between atoms: _9  and  _10
REMARK    5  A    between atoms: _9  and  _12
REMARK    6  A    between atoms: _12  and  _13
REMARK    7  A    between atoms: _18  and  _20
REMARK    8  A    between atoms: _20  and  _21
REMARK    9  A    between atoms: _20  and  _23
REMARK   10  A    between atoms: _23  and  _24
REMARK   11  A    between atoms: _24  and  _25
REMARK   12  A    between atoms: _30  and  _32
REMARK   13  A    between atoms: _32  and  _33
REMARK   14  A    between atoms: _32  and  _35
REMARK   15  A    between atoms: _35  and  _36
REMARK   16  A    between atoms: _38  and  _40
REMARK   17  A    between atoms: _40  and  _41
REMARK   18  A    between atoms: _40  and  _43
REMARK   19  A    between atoms: _43  and  _44
REMARK   20  A    between atoms: _47  and  _49
REMARK   21  A    between atoms: _49  and  _50
REMARK   22  A    between atoms: _49  and  _52
REMARK   23  A    between atoms: _52  and  _53
REMARK   24  A    between atoms: _57  and  ZN_424
REMARK   25  A    between atoms: _58  and  _60
REMARK   26  A    between atoms: _60  and  _61
REMARK   27  A    between atoms: _60  and  _63
REMARK   28  A    between atoms: _63  and  _64
REMARK   29  A    between atoms: _64  and  _65
REMARK   30  A    between atoms: _67  and  _69
REMARK   31  A    between atoms: _69  and  _70
REMARK   32  A    between atoms: _69  and  _72
REMARK   33  A    between atoms: _72  and  _73
REMARK   34  A    between atoms: _76  and  _78
REMARK   35  A    between atoms: _78  and  _79
REMARK   36  A    between atoms: _78  and  _81
REMARK   37  A    between atoms: _81  and  _82
REMARK   38  A    between atoms: _82  and  _83
REMARK   39  A    between atoms: _86  and  _88
REMARK   40  A    between atoms: _88  and  _89
REMARK   41  A    between atoms: _88  and  _91
REMARK   42  A    between atoms: _91  and  _92
REMARK   43  A    between atoms: _92  and  _93
REMARK   44  A    between atoms: _96  and  _98
REMARK   45  A    between atoms: _98  and  _99
REMARK   46  A    between atoms: _98  and  _101
REMARK   47  A    between atoms: _101  and  _102
REMARK   48  A    between atoms: _105  and  _107
REMARK   49  A    between atoms: _107  and  _108
REMARK   50  A    between atoms: _107  and  _110
REMARK   51  A    between atoms: _110  and  _111
REMARK   52  A    between atoms: _114  and  _116
REMARK   53  A    between atoms: _116  and  _117
REMARK   54  A    between atoms: _116  and  _119
REMARK   55  A    between atoms: _119  and  _120
REMARK   56  A    between atoms: _122  and  _124
REMARK   57  A    between atoms: _124  and  _125
REMARK   58  A    between atoms: _124  and  _127
REMARK   59  A    between atoms: _127  and  _128
REMARK   60  A    between atoms: _132  and  ZN_424
REMARK   61  A    between atoms: _133  and  _135
REMARK   62  A    between atoms: _135  and  _136
REMARK   63  A    between atoms: _138  and  _140
REMARK   64  A    between atoms: _140  and  _141
REMARK   65  A    between atoms: _144  and  _146
REMARK   66  A    between atoms: _146  and  _147
REMARK   67  A    between atoms: _146  and  _149
REMARK   68  A    between atoms: _149  and  _150
REMARK   69  A    between atoms: _156  and  _158
REMARK   70  A    between atoms: _158  and  _159
REMARK   71  A    between atoms: _158  and  _161
REMARK   72  A    between atoms: _161  and  _162
REMARK   73  A    between atoms: _162  and  _163
REMARK   74  A    between atoms: _163  and  _164
REMARK   75  A    between atoms: _164  and  _165
REMARK   76  A    between atoms: _169  and  _171
REMARK   77  A    between atoms: _171  and  _172
REMARK   78  A    between atoms: _171  and  _174
REMARK   79  A    between atoms: _177  and  _179
REMARK   80  A    between atoms: _179  and  _180
REMARK   81  A    between atoms: _179  and  _182
REMARK   82  A    between atoms: _182  and  _183
REMARK   83  A    between atoms: _186  and  _188
REMARK   84  A    between atoms: _188  and  _189
REMARK   85  A    between atoms: _188  and  _191
REMARK   86  A    between atoms: _191  and  _192
REMARK   87  A    between atoms: _193  and  ZN_424
REMARK   88  A    between atoms: _197  and  _199
REMARK   89  A    between atoms: _199  and  _200
REMARK   90  A    between atoms: _202  and  _204
REMARK   91  A    between atoms: _204  and  _205
REMARK   92  A    between atoms: _208  and  _210
REMARK   93  A    between atoms: _210  and  _211
REMARK   94  A    between atoms: _210  and  _213
REMARK   95  A    between atoms: _213  and  _214
REMARK   96  A    between atoms: _216  and  _218
REMARK   97  A    between atoms: _218  and  _219
REMARK   98  A    between atoms: _222  and  _224
REMARK   99  A    between atoms: _224  and  _225
REMARK  100  A    between atoms: _224  and  _227
REMARK  101  A    between atoms: _227  and  _228
REMARK  102  A    between atoms: _231  and  _233
REMARK  103  A    between atoms: _233  and  _234
REMARK  104  A    between atoms: _233  and  _236
REMARK  105  A    between atoms: _236  and  _237
REMARK  106  A    between atoms: _237  and  _238
REMARK  107  A    between atoms: _238  and  _239
REMARK  108  A    between atoms: _239  and  _240
REMARK  109  A    between atoms: _244  and  _246
REMARK  110  A    between atoms: _246  and  _247
REMARK  111  A    between atoms: _249  and  _251
REMARK  112  A    between atoms: _251  and  _252
REMARK  113  A    between atoms: _251  and  _254
REMARK  114  A    between atoms: _257  and  _259
REMARK  115  A    between atoms: _259  and  _260
REMARK  116  A    between atoms: _259  and  _262
REMARK  117  A    between atoms: _262  and  _263
REMARK  118  A    between atoms: _266  and  _268
REMARK  119  A    between atoms: _268  and  _269
REMARK  120  A    between atoms: _268  and  _271
REMARK  121  A    between atoms: _271  and  _272
REMARK  122  A    between atoms: _272  and  _273
REMARK  123  A    between atoms: _273  and  _274
REMARK  124  A    between atoms: _274  and  _275
REMARK  125  A    between atoms: _279  and  _281
REMARK  126  A    between atoms: _281  and  _282
REMARK  127  A    between atoms: _281  and  _284
REMARK  128  A    between atoms: _287  and  _289
REMARK  129  A    between atoms: _289  and  _290
REMARK  130  A    between atoms: _289  and  _292
REMARK  131  A    between atoms: _292  and  _293
REMARK  132  A    between atoms: _298  and  _300
REMARK  133  A    between atoms: _300  and  _301
REMARK  134  A    between atoms: _300  and  _303
REMARK  135  A    between atoms: _303  and  _304
REMARK  136  A    between atoms: _307  and  _309
REMARK  137  A    between atoms: _309  and  _310
REMARK  138  A    between atoms: _309  and  _312
REMARK  139  A    between atoms: _312  and  _313
REMARK  140  A    between atoms: _316  and  _318
REMARK  141  A    between atoms: _318  and  _319
REMARK  142  A    between atoms: _318  and  _321
REMARK  143  A    between atoms: _321  and  _322
REMARK  144  A    between atoms: _325  and  _327
REMARK  145  A    between atoms: _327  and  _328
REMARK  146  A    between atoms: _327  and  _330
REMARK  147  A    between atoms: _330  and  _331
REMARK  148  A    between atoms: _334  and  _336
REMARK  149  A    between atoms: _336  and  _337
REMARK  150  A    between atoms: _336  and  _339
REMARK  151  A    between atoms: _339  and  _340
REMARK  152  A    between atoms: _343  and  _345
REMARK  153  A    between atoms: _345  and  _346
REMARK  154  A    between atoms: _345  and  _348
REMARK  155  A    between atoms: _348  and  _349
REMARK  156  A    between atoms: _349  and  _350
REMARK  157  A    between atoms: _350  and  _351
REMARK  158  A    between atoms: _360  and  _362
REMARK  159  A    between atoms: _362  and  _363
REMARK  160  A    between atoms: _362  and  _365
REMARK  161  A    between atoms: _365  and  _366
REMARK  162  A    between atoms: _369  and  _371
REMARK  163  A    between atoms: _371  and  _372
REMARK  164  A    between atoms: _371  and  _374
REMARK  165  A    between atoms: _374  and  _375
REMARK  166  A    between atoms: _375  and  _376
REMARK  167  A    between atoms: _376  and  _377
REMARK  168  A    between atoms: _386  and  _388
REMARK  169  A    between atoms: _388  and  _389
REMARK  170  A    between atoms: _388  and  _391
REMARK  171  A    between atoms: _391  and  _392
REMARK  172  A    between atoms: _398  and  _400
REMARK  173  A    between atoms: _400  and  _401
REMARK  174  A    between atoms: _400  and  _403
REMARK  175  A    between atoms: _403  and  _404
REMARK  176  A    between atoms: _407  and  _409
REMARK  177  A    between atoms: _409  and  _410
REMARK  178  A    between atoms: _409  and  _412
REMARK  179  A    between atoms: _412  and  _413
REMARK  180  A    between atoms: _413  and  _414
REMARK  181  A    between atoms: _414  and  _415
REMARK                            x       y       z     vdW  Elec       q    Type
REMARK                         _______ _______ _______ _____ _____    ______ ____
ROOT
ATOM      1  CA  MET A   1     -10.051 -16.669 -35.052  0.00  0.00    +0.134 C 
ENDROOT
BRANCH   1   2
ATOM      2  N   MET A   1      -9.835 -16.046 -33.755  0.00  0.00    -0.239 NA
ATOM      3  H   MET A   1      -9.235 -15.200 -33.678  0.00  0.00    +0.142 HD
ENDBRANCH   1   2
BRANCH   1   4
ATOM      4  C   MET A   1      -8.811 -17.457 -35.442  0.00  0.00    +0.224 C 
ATOM      5  O   MET A   1      -7.710 -16.920 -35.412  0.00  0.00    -0.287 OA
ENDBRANCH   1   4
BRANCH   1   6
ATOM      6  CB  MET A   1     -10.290 -15.622 -36.147  0.00  0.00    +0.037 C 
BRANCH   6   7
ATOM      7  CG  MET A   1     -10.519 -16.268 -37.505  0.00  0.00    +0.059 C 
BRANCH   7   8
ATOM      8  SD  MET A   1     -10.247 -15.117 -38.856  0.00  0.00    -0.139 S 
ATOM      9  CE  MET A   1     -10.981 -16.035 -40.205  0.00  0.00    +0.069 C 
ENDBRANCH   7   8
ENDBRANCH   6   7
ENDBRANCH   1   6
TORSDOF 5
REMARK  Name = ../refined-set-2016/3n9r/3n9r_pocket.pdb
REMARK  181 active torsions:
REMARK  status: ('A' for Active; 'I' for Inactive)
REMARK    1  A    between atoms: _1  and  _3
REMARK    2  A    between atoms: _3  and  _4
REMARK    3  A    between atoms: _7  and  _9
REMARK    4  A    between atoms: _9  and  _10
REMARK    5  A    between atoms: _9  and  _12
REMARK    6  A    between atoms: _12  and  _13
REMARK    7  A    between atoms: _18  and  _20
REMARK    8  A    between atoms: _20  and  _21
REMARK    9  A    between atoms: _20  and  _23
REMARK   10  A    between atoms: _23  and  _24
REMARK   11  A    between atoms: _24  and  _25
REMARK   12  A    between atoms: _30  and  _32
REMARK   13  A    between atoms: _32  and  _33
REMARK   14  A    between atoms: _32  and  _35
REMARK   15  A    between atoms: _35  and  _36
REMARK   16  A    between atoms: _38  and  _40
REMARK   17  A    between atoms: _40  and  _41
REMARK   18  A    between atoms: _40  and  _43
REMARK   19  A    between atoms: _43  and  _44
REMARK   20  A    between atoms: _47  and  _49
REMARK   21  A    between atoms: _49  and  _50
REMARK   22  A    between atoms: _49  and  _52
REMARK   23  A    between atoms: _52  and  _53
REMARK   24  A    between atoms: _57  and  ZN_424
REMARK   25  A    between atoms: _58  and  _60
REMARK   26  A    between atoms: _60  and  _61
REMARK   27  A    between atoms: _60  and  _63
REMARK   28  A    between atoms: _63  and  _64
REMARK   29  A    between atoms: _64  and  _65
REMARK   30  A    between atoms: _67  and  _69
REMARK   31  A    between atoms: _69  and  _70
REMARK   32  A    between atoms: _69  and  _72
REMARK   33  A    between atoms: _72  and  _73
REMARK   34  A    between atoms: _76  and  _78
REMARK   35  A    between atoms: _78  and  _79
REMARK   36  A    between atoms: _78  and  _81
REMARK   37  A    between atoms: _81  and  _82
REMARK   38  A    between atoms: _82  and  _83
REMARK   39  A    between atoms: _86  and  _88
REMARK   40  A    between atoms: _88  and  _89
REMARK   41  A    between atoms: _88  and  _91
REMARK   42  A    between atoms: _91  and  _92
REMARK   43  A    between atoms: _92  and  _93
REMARK   44  A    between atoms: _96  and  _98
REMARK   45  A    between atoms: _98  and  _99
REMARK   46  A    between atoms: _98  and  _101
REMARK   47  A    between atoms: _101  and  _102
REMARK   48  A    between atoms: _105  and  _107
REMARK   49  A    between atoms: _107  and  _108
REMARK   50  A    between atoms: _107  and  _110
REMARK   51  A    between atoms: _110  and  _111
REMARK   52  A    between atoms: _114  and  _116
REMARK   53  A    between atoms: _116  and  _117
REMARK   54  A    between atoms: _116  and  _119
REMARK   55  A    between atoms: _119  and  _120
REMARK   56  A    between atoms: _122  and  _124
REMARK   57  A    between atoms: _124  and  _125
REMARK   58  A    between atoms: _124  and  _127
REMARK   59  A    between atoms: _127  and  _128
REMARK   60  A    between atoms: _132  and  ZN_424
REMARK   61  A    between atoms: _133  and  _135
REMARK   62  A    between atoms: _135  and  _136
REMARK   63  A    between atoms: _138  and  _140
REMARK   64  A    between atoms: _140  and  _141
REMARK   65  A    between atoms: _144  and  _146
REMARK   66  A    between atoms: _146  and  _147
REMARK   67  A    between atoms: _146  and  _149
REMARK   68  A    between atoms: _149  and  _150
REMARK   69  A    between atoms: _156  and  _158
REMARK   70  A    between atoms: _158  and  _159
REMARK   71  A    between atoms: _158  and  _161
REMARK   72  A    between atoms: _161  and  _162
REMARK   73  A    between atoms: _162  and  _163
REMARK   74  A    between atoms: _163  and  _164
REMARK   75  A    between atoms: _164  and  _165
REMARK   76  A    between atoms: _169  and  _171
REMARK   77  A    between atoms: _171  and  _172
REMARK   78  A    between atoms: _171  and  _174
REMARK   79  A    between atoms: _177  and  _179
REMARK   80  A    between atoms: _179  and  _180
REMARK   81  A    between atoms: _179  and  _182
REMARK   82  A    between atoms: _182  and  _183
REMARK   83  A    between atoms: _186  and  _188
REMARK   84  A    between atoms: _188  and  _189
REMARK   85  A    between atoms: _188  and  _191
REMARK   86  A    between atoms: _191  and  _192
REMARK   87  A    between atoms: _193  and  ZN_424
REMARK   88  A    between atoms: _197  and  _199
REMARK   89  A    between atoms: _199  and  _200
REMARK   90  A    between atoms: _202  and  _204
REMARK   91  A    between atoms: _204  and  _205
REMARK   92  A    between atoms: _208  and  _210
REMARK   93  A    between atoms: _210  and  _211
REMARK   94  A    between atoms: _210  and  _213
REMARK   95  A    between atoms: _213  and  _214
REMARK   96  A    between atoms: _216  and  _218
REMARK   97  A    between atoms: _218  and  _219
REMARK   98  A    between atoms: _222  and  _224
REMARK   99  A    between atoms: _224  and  _225
REMARK  100  A    between atoms: _224  and  _227
REMARK  101  A    between atoms: _227  and  _228
REMARK  102  A    between atoms: _231  and  _233
REMARK  103  A    between atoms: _233  and  _234
REMARK  104  A    between atoms: _233  and  _236
REMARK  105  A    between atoms: _236  and  _237
REMARK  106  A    between atoms: _237  and  _238
REMARK  107  A    between atoms: _238  and  _239
REMARK  108  A    between atoms: _239  and  _240
REMARK  109  A    between atoms: _244  and  _246
REMARK  110  A    between atoms: _246  and  _247
REMARK  111  A    between atoms: _249  and  _251
REMARK  112  A    between atoms: _251  and  _252
REMARK  113  A    between atoms: _251  and  _254
REMARK  114  A    between atoms: _257  and  _259
REMARK  115  A    between atoms: _259  and  _260
REMARK  116  A    between atoms: _259  and  _262
REMARK  117  A    between atoms: _262  and  _263
REMARK  118  A    between atoms: _266  and  _268
REMARK  119  A    between atoms: _268  and  _269
REMARK  120  A    between atoms: _268  and  _271
REMARK  121  A    between atoms: _271  and  _272
REMARK  122  A    between atoms: _272  and  _273
REMARK  123  A    between atoms: _273  and  _274
REMARK  124  A    between atoms: _274  and  _275
REMARK  125  A    between atoms: _279  and  _281
REMARK  126  A    between atoms: _281  and  _282
REMARK  127  A    between atoms: _281  and  _284
REMARK  128  A    between atoms: _287  and  _289
REMARK  129  A    between atoms: _289  and  _290
REMARK  130  A    between atoms: _289  and  _292
REMARK  131  A    between atoms: _292  and  _293
REMARK  132  A    between atoms: _298  and  _300
REMARK  133  A    between atoms: _300  and  _301
REMARK  134  A    between atoms: _300  and  _303
REMARK  135  A    between atoms: _303  and  _304
REMARK  136  A    between atoms: _307  and  _309
REMARK  137  A    between atoms: _309  and  _310
REMARK  138  A    between atoms: _309  and  _312
REMARK  139  A    between atoms: _312  and  _313
REMARK  140  A    between atoms: _316  and  _318
REMARK  141  A    between atoms: _318  and  _319
REMARK  142  A    between atoms: _318  and  _321
REMARK  143  A    between atoms: _321  and  _322
REMARK  144  A    between atoms: _325  and  _327
REMARK  145  A    between atoms: _327  and  _328
REMARK  146  A    between atoms: _327  and  _330
REMARK  147  A    between atoms: _330  and  _331
REMARK  148  A    between atoms: _334  and  _336
REMARK  149  A    between atoms: _336  and  _337
REMARK  150  A    between atoms: _336  and  _339
REMARK  151  A    between atoms: _339  and  _340
REMARK  152  A    between atoms: _343  and  _345
REMARK  153  A    between atoms: _345  and  _346
REMARK  154  A    between atoms: _345  and  _348
REMARK  155  A    between atoms: _348  and  _349
REMARK  156  A    between atoms: _349  and  _350
REMARK  157  A    between atoms: _350  and  _351
REMARK  158  A    between atoms: _360  and  _362
REMARK  159  A    between atoms: _362  and  _363
REMARK  160  A    between atoms: _362  and  _365
REMARK  161  A    between atoms: _365  and  _366
REMARK  162  A    between atoms: _369  and  _371
REMARK  163  A    between atoms: _371  and  _372
REMARK  164  A    between atoms: _371  and  _374
REMARK  165  A    between atoms: _374  and  _375
REMARK  166  A    between atoms: _375  and  _376
REMARK  167  A    between atoms: _376  and  _377
REMARK  168  A    between atoms: _386  and  _388
REMARK  169  A    between atoms: _388  and  _389
REMARK  170  A    between atoms: _388  and  _391
REMARK  171  A    between atoms: _391  and  _392
REMARK  172  A    between atoms: _398  and  _400
REMARK  173  A    between atoms: _400  and  _401
REMARK  174  A    between atoms: _400  and  _403
REMARK  175  A    between atoms: _403  and  _404
REMARK  176  A    between atoms: _407  and  _409
REMARK  177  A    between atoms: _409  and  _410
REMARK  178  A    between atoms: _409  and  _412
REMARK  179  A    between atoms: _412  and  _413
REMARK  180  A    between atoms: _413  and  _414
REMARK  181  A    between atoms: _414  and  _415
REMARK                            x       y       z     vdW  Elec       q    Type
REMARK                         _______ _______ _______ _____ _____    ______ ____
ROOT
ATOM      1  CA  ASP A   1      -7.663 -18.934 -40.134  0.00  0.00    +0.144 C 
ENDROOT
BRANCH   1   2
ATOM      2  N   ASP A   1      -7.427 -19.034 -38.713  0.00  0.00    -0.239 NA
ATOM      3  H   ASP A   1      -6.562 -18.613 -38.318  0.00  0.00    +0.142 HD
ENDBRANCH   1   2
BRANCH   1   4
ATOM      4  C   ASP A   1      -6.712 -19.859 -40.865  0.00  0.00    +0.225 C 
ATOM      5  O   ASP A   1      -5.541 -19.528 -41.080  0.00  0.00    -0.287 OA
ENDBRANCH   1   4
BRANCH   1   6
ATOM      6  CB  ASP A   1      -7.424 -17.506 -40.607  0.00  0.00    +0.139 C 
BRANCH   6   7
ATOM      7  CG  ASP A   1      -7.613 -17.348 -42.096  0.00  0.00    +0.367 C 
ATOM      8  OD2 ASP A   1      -7.491 -16.200 -42.576  0.00  0.00    -0.246 OA
ATOM      9  OD1 ASP A   1      -7.870 -18.364 -42.782  0.00  0.00    -0.246 OA
ENDBRANCH   6   7
ENDBRANCH   1   6
TORSDOF 4
REMARK  Name = ../refined-set-2016/3n9r/3n9r_pocket.pdb
REMARK  181 active torsions:
REMARK  status: ('A' for Active; 'I' for Inactive)
REMARK    1  A    between atoms: _1  and  _3
REMARK    2  A    between atoms: _3  and  _4
REMARK    3  A    between atoms: _7  and  _9
REMARK    4  A    between atoms: _9  and  _10
REMARK    5  A    between atoms: _9  and  _12
REMARK    6  A    between atoms: _12  and  _13
REMARK    7  A    between atoms: _18  and  _20
REMARK    8  A    between atoms: _20  and  _21
REMARK    9  A    between atoms: _20  and  _23
REMARK   10  A    between atoms: _23  and  _24
REMARK   11  A    between atoms: _24  and  _25
REMARK   12  A    between atoms: _30  and  _32
REMARK   13  A    between atoms: _32  and  _33
REMARK   14  A    between atoms: _32  and  _35
REMARK   15  A    between atoms: _35  and  _36
REMARK   16  A    between atoms: _38  and  _40
REMARK   17  A    between atoms: _40  and  _41
REMARK   18  A    between atoms: _40  and  _43
REMARK   19  A    between atoms: _43  and  _44
REMARK   20  A    between atoms: _47  and  _49
REMARK   21  A    between atoms: _49  and  _50
REMARK   22  A    between atoms: _49  and  _52
REMARK   23  A    between atoms: _52  and  _53
REMARK   24  A    between atoms: _57  and  ZN_424
REMARK   25  A    between atoms: _58  and  _60
REMARK   26  A    between atoms: _60  and  _61
REMARK   27  A    between atoms: _60  and  _63
REMARK   28  A    between atoms: _63  and  _64
REMARK   29  A    between atoms: _64  and  _65
REMARK   30  A    between atoms: _67  and  _69
REMARK   31  A    between atoms: _69  and  _70
REMARK   32  A    between atoms: _69  and  _72
REMARK   33  A    between atoms: _72  and  _73
REMARK   34  A    between atoms: _76  and  _78
REMARK   35  A    between atoms: _78  and  _79
REMARK   36  A    between atoms: _78  and  _81
REMARK   37  A    between atoms: _81  and  _82
REMARK   38  A    between atoms: _82  and  _83
REMARK   39  A    between atoms: _86  and  _88
REMARK   40  A    between atoms: _88  and  _89
REMARK   41  A    between atoms: _88  and  _91
REMARK   42  A    between atoms: _91  and  _92
REMARK   43  A    between atoms: _92  and  _93
REMARK   44  A    between atoms: _96  and  _98
REMARK   45  A    between atoms: _98  and  _99
REMARK   46  A    between atoms: _98  and  _101
REMARK   47  A    between atoms: _101  and  _102
REMARK   48  A    between atoms: _105  and  _107
REMARK   49  A    between atoms: _107  and  _108
REMARK   50  A    between atoms: _107  and  _110
REMARK   51  A    between atoms: _110  and  _111
REMARK   52  A    between atoms: _114  and  _116
REMARK   53  A    between atoms: _116  and  _117
REMARK   54  A    between atoms: _116  and  _119
REMARK   55  A    between atoms: _119  and  _120
REMARK   56  A    between atoms: _122  and  _124
REMARK   57  A    between atoms: _124  and  _125
REMARK   58  A    between atoms: _124  and  _127
REMARK   59  A    between atoms: _127  and  _128
REMARK   60  A    between atoms: _132  and  ZN_424
REMARK   61  A    between atoms: _133  and  _135
REMARK   62  A    between atoms: _135  and  _136
REMARK   63  A    between atoms: _138  and  _140
REMARK   64  A    between atoms: _140  and  _141
REMARK   65  A    between atoms: _144  and  _146
REMARK   66  A    between atoms: _146  and  _147
REMARK   67  A    between atoms: _146  and  _149
REMARK   68  A    between atoms: _149  and  _150
REMARK   69  A    between atoms: _156  and  _158
REMARK   70  A    between atoms: _158  and  _159
REMARK   71  A    between atoms: _158  and  _161
REMARK   72  A    between atoms: _161  and  _162
REMARK   73  A    between atoms: _162  and  _163
REMARK   74  A    between atoms: _163  and  _164
REMARK   75  A    between atoms: _164  and  _165
REMARK   76  A    between atoms: _169  and  _171
REMARK   77  A    between atoms: _171  and  _172
REMARK   78  A    between atoms: _171  and  _174
REMARK   79  A    between atoms: _177  and  _179
REMARK   80  A    between atoms: _179  and  _180
REMARK   81  A    between atoms: _179  and  _182
REMARK   82  A    between atoms: _182  and  _183
REMARK   83  A    between atoms: _186  and  _188
REMARK   84  A    between atoms: _188  and  _189
REMARK   85  A    between atoms: _188  and  _191
REMARK   86  A    between atoms: _191  and  _192
REMARK   87  A    between atoms: _193  and  ZN_424
REMARK   88  A    between atoms: _197  and  _199
REMARK   89  A    between atoms: _199  and  _200
REMARK   90  A    between atoms: _202  and  _204
REMARK   91  A    between atoms: _204  and  _205
REMARK   92  A    between atoms: _208  and  _210
REMARK   93  A    between atoms: _210  and  _211
REMARK   94  A    between atoms: _210  and  _213
REMARK   95  A    between atoms: _213  and  _214
REMARK   96  A    between atoms: _216  and  _218
REMARK   97  A    between atoms: _218  and  _219
REMARK   98  A    between atoms: _222  and  _224
REMARK   99  A    between atoms: _224  and  _225
REMARK  100  A    between atoms: _224  and  _227
REMARK  101  A    between atoms: _227  and  _228
REMARK  102  A    between atoms: _231  and  _233
REMARK  103  A    between atoms: _233  and  _234
REMARK  104  A    between atoms: _233  and  _236
REMARK  105  A    between atoms: _236  and  _237
REMARK  106  A    between atoms: _237  and  _238
REMARK  107  A    between atoms: _238  and  _239
REMARK  108  A    between atoms: _239  and  _240
REMARK  109  A    between atoms: _244  and  _246
REMARK  110  A    between atoms: _246  and  _247
REMARK  111  A    between atoms: _249  and  _251
REMARK  112  A    between atoms: _251  and  _252
REMARK  113  A    between atoms: _251  and  _254
REMARK  114  A    between atoms: _257  and  _259
REMARK  115  A    between atoms: _259  and  _260
REMARK  116  A    between atoms: _259  and  _262
REMARK  117  A    between atoms: _262  and  _263
REMARK  118  A    between atoms: _266  and  _268
REMARK  119  A    between atoms: _268  and  _269
REMARK  120  A    between atoms: _268  and  _271
REMARK  121  A    between atoms: _271  and  _272
REMARK  122  A    between atoms: _272  and  _273
REMARK  123  A    between atoms: _273  and  _274
REMARK  124  A    between atoms: _274  and  _275
REMARK  125  A    between atoms: _279  and  _281
REMARK  126  A    between atoms: _281  and  _282
REMARK  127  A    between atoms: _281  and  _284
REMARK  128  A    between atoms: _287  and  _289
REMARK  129  A    between atoms: _289  and  _290
REMARK  130  A    between atoms: _289  and  _292
REMARK  131  A    between atoms: _292  and  _293
REMARK  132  A    between atoms: _298  and  _300
REMARK  133  A    between atoms: _300  and  _301
REMARK  134  A    between atoms: _300  and  _303
REMARK  135  A    between atoms: _303  and  _304
REMARK  136  A    between atoms: _307  and  _309
REMARK  137  A    between atoms: _309  and  _310
REMARK  138  A    between atoms: _309  and  _312
REMARK  139  A    between atoms: _312  and  _313
REMARK  140  A    between atoms: _316  and  _318
REMARK  141  A    between atoms: _318  and  _319
REMARK  142  A    between atoms: _318  and  _321
REMARK  143  A    between atoms: _321  and  _322
REMARK  144  A    between atoms: _325  and  _327
REMARK  145  A    between atoms: _327  and  _328
REMARK  146  A    between atoms: _327  and  _330
REMARK  147  A    between atoms: _330  and  _331
REMARK  148  A    between atoms: _334  and  _336
REMARK  149  A    between atoms: _336  and  _337
REMARK  150  A    between atoms: _336  and  _339
REMARK  151  A    between atoms: _339  and  _340
REMARK  152  A    between atoms: _343  and  _345
REMARK  153  A    between atoms: _345  and  _346
REMARK  154  A    between atoms: _345  and  _348
REMARK  155  A    between atoms: _348  and  _349
REMARK  156  A    between atoms: _349  and  _350
REMARK  157  A    between atoms: _350  and  _351
REMARK  158  A    between atoms: _360  and  _362
REMARK  159  A    between atoms: _362  and  _363
REMARK  160  A    between atoms: _362  and  _365
REMARK  161  A    between atoms: _365  and  _366
REMARK  162  A    between atoms: _369  and  _371
REMARK  163  A    between atoms: _371  and  _372
REMARK  164  A    between atoms: _371  and  _374
REMARK  165  A    between atoms: _374  and  _375
REMARK  166  A    between atoms: _375  and  _376
REMARK  167  A    between atoms: _376  and  _377
REMARK  168  A    between atoms: _386  and  _388
REMARK  169  A    between atoms: _388  and  _389
REMARK  170  A    between atoms: _388  and  _391
REMARK  171  A    between atoms: _391  and  _392
REMARK  172  A    between atoms: _398  and  _400
REMARK  173  A    between atoms: _400  and  _401
REMARK  174  A    between atoms: _400  and  _403
REMARK  175  A    between atoms: _403  and  _404
REMARK  176  A    between atoms: _407  and  _409
REMARK  177  A    between atoms: _409  and  _410
REMARK  178  A    between atoms: _409  and  _412
REMARK  179  A    between atoms: _412  and  _413
REMARK  180  A    between atoms: _413  and  _414
REMARK  181  A    between atoms: _414  and  _415
REMARK                            x       y       z     vdW  Elec       q    Type
REMARK                         _______ _______ _______ _____ _____    ______ ____
ROOT
ATOM      1  CA  GLU A   1     -14.050 -18.470 -35.229  0.00  0.00    +0.134 C 
ENDROOT
BRANCH   1   2
ATOM      2  N   GLU A   1     -13.563 -18.662 -33.867  0.00  0.00    -0.239 NA
ATOM      3  H   GLU A   1     -12.653 -18.230 -33.609  0.00  0.00    +0.142 HD
ENDBRANCH   1   2
BRANCH   1   4
ATOM      4  C   GLU A   1     -13.103 -19.213 -36.177  0.00  0.00    +0.224 C 
ATOM      5  O   GLU A   1     -11.902 -19.246 -35.946  0.00  0.00    -0.287 OA
ENDBRANCH   1   4
BRANCH   1   6
ATOM      6  CB  GLU A   1     -14.033 -16.973 -35.564  0.00  0.00    +0.037 C 
BRANCH   6   7
ATOM      7  CG  GLU A   1     -14.422 -16.652 -37.008  0.00  0.00    +0.116 C 
BRANCH   7   8
ATOM      8  CD  GLU A   1     -14.231 -15.184 -37.318  0.00  0.00    +0.365 C 
ATOM      9  OE2 GLU A   1     -14.514 -14.349 -36.429  0.00  0.00    -0.246 OA
ATOM     10  OE1 GLU A   1     -13.799 -14.862 -38.448  0.00  0.00    -0.246 OA
ENDBRANCH   7   8
ENDBRANCH   6   7
ENDBRANCH   1   6
TORSDOF 5
REMARK  Name = ../refined-set-2016/3n9r/3n9r_pocket.pdb
REMARK  181 active torsions:
REMARK  status: ('A' for Active; 'I' for Inactive)
REMARK    1  A    between atoms: _1  and  _3
REMARK    2  A    between atoms: _3  and  _4
REMARK    3  A    between atoms: _7  and  _9
REMARK    4  A    between atoms: _9  and  _10
REMARK    5  A    between atoms: _9  and  _12
REMARK    6  A    between atoms: _12  and  _13
REMARK    7  A    between atoms: _18  and  _20
REMARK    8  A    between atoms: _20  and  _21
REMARK    9  A    between atoms: _20  and  _23
REMARK   10  A    between atoms: _23  and  _24
REMARK   11  A    between atoms: _24  and  _25
REMARK   12  A    between atoms: _30  and  _32
REMARK   13  A    between atoms: _32  and  _33
REMARK   14  A    between atoms: _32  and  _35
REMARK   15  A    between atoms: _35  and  _36
REMARK   16  A    between atoms: _38  and  _40
REMARK   17  A    between atoms: _40  and  _41
REMARK   18  A    between atoms: _40  and  _43
REMARK   19  A    between atoms: _43  and  _44
REMARK   20  A    between atoms: _47  and  _49
REMARK   21  A    between atoms: _49  and  _50
REMARK   22  A    between atoms: _49  and  _52
REMARK   23  A    between atoms: _52  and  _53
REMARK   24  A    between atoms: _57  and  ZN_424
REMARK   25  A    between atoms: _58  and  _60
REMARK   26  A    between atoms: _60  and  _61
REMARK   27  A    between atoms: _60  and  _63
REMARK   28  A    between atoms: _63  and  _64
REMARK   29  A    between atoms: _64  and  _65
REMARK   30  A    between atoms: _67  and  _69
REMARK   31  A    between atoms: _69  and  _70
REMARK   32  A    between atoms: _69  and  _72
REMARK   33  A    between atoms: _72  and  _73
REMARK   34  A    between atoms: _76  and  _78
REMARK   35  A    between atoms: _78  and  _79
REMARK   36  A    between atoms: _78  and  _81
REMARK   37  A    between atoms: _81  and  _82
REMARK   38  A    between atoms: _82  and  _83
REMARK   39  A    between atoms: _86  and  _88
REMARK   40  A    between atoms: _88  and  _89
REMARK   41  A    between atoms: _88  and  _91
REMARK   42  A    between atoms: _91  and  _92
REMARK   43  A    between atoms: _92  and  _93
REMARK   44  A    between atoms: _96  and  _98
REMARK   45  A    between atoms: _98  and  _99
REMARK   46  A    between atoms: _98  and  _101
REMARK   47  A    between atoms: _101  and  _102
REMARK   48  A    between atoms: _105  and  _107
REMARK   49  A    between atoms: _107  and  _108
REMARK   50  A    between atoms: _107  and  _110
REMARK   51  A    between atoms: _110  and  _111
REMARK   52  A    between atoms: _114  and  _116
REMARK   53  A    between atoms: _116  and  _117
REMARK   54  A    between atoms: _116  and  _119
REMARK   55  A    between atoms: _119  and  _120
REMARK   56  A    between atoms: _122  and  _124
REMARK   57  A    between atoms: _124  and  _125
REMARK   58  A    between atoms: _124  and  _127
REMARK   59  A    between atoms: _127  and  _128
REMARK   60  A    between atoms: _132  and  ZN_424
REMARK   61  A    between atoms: _133  and  _135
REMARK   62  A    between atoms: _135  and  _136
REMARK   63  A    between atoms: _138  and  _140
REMARK   64  A    between atoms: _140  and  _141
REMARK   65  A    between atoms: _144  and  _146
REMARK   66  A    between atoms: _146  and  _147
REMARK   67  A    between atoms: _146  and  _149
REMARK   68  A    between atoms: _149  and  _150
REMARK   69  A    between atoms: _156  and  _158
REMARK   70  A    between atoms: _158  and  _159
REMARK   71  A    between atoms: _158  and  _161
REMARK   72  A    between atoms: _161  and  _162
REMARK   73  A    between atoms: _162  and  _163
REMARK   74  A    between atoms: _163  and  _164
REMARK   75  A    between atoms: _164  and  _165
REMARK   76  A    between atoms: _169  and  _171
REMARK   77  A    between atoms: _171  and  _172
REMARK   78  A    between atoms: _171  and  _174
REMARK   79  A    between atoms: _177  and  _179
REMARK   80  A    between atoms: _179  and  _180
REMARK   81  A    between atoms: _179  and  _182
REMARK   82  A    between atoms: _182  and  _183
REMARK   83  A    between atoms: _186  and  _188
REMARK   84  A    between atoms: _188  and  _189
REMARK   85  A    between atoms: _188  and  _191
REMARK   86  A    between atoms: _191  and  _192
REMARK   87  A    between atoms: _193  and  ZN_424
REMARK   88  A    between atoms: _197  and  _199
REMARK   89  A    between atoms: _199  and  _200
REMARK   90  A    between atoms: _202  and  _204
REMARK   91  A    between atoms: _204  and  _205
REMARK   92  A    between atoms: _208  and  _210
REMARK   93  A    between atoms: _210  and  _211
REMARK   94  A    between atoms: _210  and  _213
REMARK   95  A    between atoms: _213  and  _214
REMARK   96  A    between atoms: _216  and  _218
REMARK   97  A    between atoms: _218  and  _219
REMARK   98  A    between atoms: _222  and  _224
REMARK   99  A    between atoms: _224  and  _225
REMARK  100  A    between atoms: _224  and  _227
REMARK  101  A    between atoms: _227  and  _228
REMARK  102  A    between atoms: _231  and  _233
REMARK  103  A    between atoms: _233  and  _234
REMARK  104  A    between atoms: _233  and  _236
REMARK  105  A    between atoms: _236  and  _237
REMARK  106  A    between atoms: _237  and  _238
REMARK  107  A    between atoms: _238  and  _239
REMARK  108  A    between atoms: _239  and  _240
REMARK  109  A    between atoms: _244  and  _246
REMARK  110  A    between atoms: _246  and  _247
REMARK  111  A    between atoms: _249  and  _251
REMARK  112  A    between atoms: _251  and  _252
REMARK  113  A    between atoms: _251  and  _254
REMARK  114  A    between atoms: _257  and  _259
REMARK  115  A    between atoms: _259  and  _260
REMARK  116  A    between atoms: _259  and  _262
REMARK  117  A    between atoms: _262  and  _263
REMARK  118  A    between atoms: _266  and  _268
REMARK  119  A    between atoms: _268  and  _269
REMARK  120  A    between atoms: _268  and  _271
REMARK  121  A    between atoms: _271  and  _272
REMARK  122  A    between atoms: _272  and  _273
REMARK  123  A    between atoms: _273  and  _274
REMARK  124  A    between atoms: _274  and  _275
REMARK  125  A    between atoms: _279  and  _281
REMARK  126  A    between atoms: _281  and  _282
REMARK  127  A    between atoms: _281  and  _284
REMARK  128  A    between atoms: _287  and  _289
REMARK  129  A    between atoms: _289  and  _290
REMARK  130  A    between atoms: _289  and  _292
REMARK  131  A    between atoms: _292  and  _293
REMARK  132  A    between atoms: _298  and  _300
REMARK  133  A    between atoms: _300  and  _301
REMARK  134  A    between atoms: _300  and  _303
REMARK  135  A    between atoms: _303  and  _304
REMARK  136  A    between atoms: _307  and  _309
REMARK  137  A    between atoms: _309  and  _310
REMARK  138  A    between atoms: _309  and  _312
REMARK  139  A    between atoms: _312  and  _313
REMARK  140  A    between atoms: _316  and  _318
REMARK  141  A    between atoms: _318  and  _319
REMARK  142  A    between atoms: _318  and  _321
REMARK  143  A    between atoms: _321  and  _322
REMARK  144  A    between atoms: _325  and  _327
REMARK  145  A    between atoms: _327  and  _328
REMARK  146  A    between atoms: _327  and  _330
REMARK  147  A    between atoms: _330  and  _331
REMARK  148  A    between atoms: _334  and  _336
REMARK  149  A    between atoms: _336  and  _337
REMARK  150  A    between atoms: _336  and  _339
REMARK  151  A    between atoms: _339  and  _340
REMARK  152  A    between atoms: _343  and  _345
REMARK  153  A    between atoms: _345  and  _346
REMARK  154  A    between atoms: _345  and  _348
REMARK  155  A    between atoms: _348  and  _349
REMARK  156  A    between atoms: _349  and  _350
REMARK  157  A    between atoms: _350  and  _351
REMARK  158  A    between atoms: _360  and  _362
REMARK  159  A    between atoms: _362  and  _363
REMARK  160  A    between atoms: _362  and  _365
REMARK  161  A    between atoms: _365  and  _366
REMARK  162  A    between atoms: _369  and  _371
REMARK  163  A    between atoms: _371  and  _372
REMARK  164  A    between atoms: _371  and  _374
REMARK  165  A    between atoms: _374  and  _375
REMARK  166  A    between atoms: _375  and  _376
REMARK  167  A    between atoms: _376  and  _377
REMARK  168  A    between atoms: _386  and  _388
REMARK  169  A    between atoms: _388  and  _389
REMARK  170  A    between atoms: _388  and  _391
REMARK  171  A    between atoms: _391  and  _392
REMARK  172  A    between atoms: _398  and  _400
REMARK  173  A    between atoms: _400  and  _401
REMARK  174  A    between atoms: _400  and  _403
REMARK  175  A    between atoms: _403  and  _404
REMARK  176  A    between atoms: _407  and  _409
REMARK  177  A    between atoms: _409  and  _410
REMARK  178  A    between atoms: _409  and  _412
REMARK  179  A    between atoms: _412  and  _413
REMARK  180  A    between atoms: _413  and  _414
REMARK  181  A    between atoms: _414  and  _415
REMARK                            x       y       z     vdW  Elec       q    Type
REMARK                         _______ _______ _______ _____ _____    ______ ____
ROOT
ATOM      1  CA  GLU A   1     -13.011 -19.883 -42.030  0.00  0.00    +0.134 C 
ENDROOT
BRANCH   1   2
ATOM      2  N   GLU A   1     -12.647 -20.371 -40.694  0.00  0.00    -0.239 NA
ATOM      3  H   GLU A   1     -11.840 -21.019 -40.590  0.00  0.00    +0.142 HD
ENDBRANCH   1   2
BRANCH   1   4
ATOM      4  C   GLU A   1     -13.028 -21.009 -43.057  0.00  0.00    +0.224 C 
ATOM      5  O   GLU A   1     -12.163 -21.878 -43.049  0.00  0.00    -0.287 OA
ENDBRANCH   1   4
BRANCH   1   6
ATOM      6  CB  GLU A   1     -12.033 -18.789 -42.500  0.00  0.00    +0.037 C 
BRANCH   6   7
ATOM      7  CG  GLU A   1     -12.393 -18.174 -43.846  0.00  0.00    +0.116 C 
BRANCH   7   8
ATOM      8  CD  GLU A   1     -11.488 -16.995 -44.240  0.00  0.00    +0.365 C 
ATOM      9  OE2 GLU A   1     -10.308 -16.965 -43.845  0.00  0.00    -0.246 OA
ATOM     10  OE1 GLU A   1     -11.962 -16.078 -44.944  0.00  0.00    -0.246 OA
ENDBRANCH   7   8
ENDBRANCH   6   7
ENDBRANCH   1   6
TORSDOF 5
REMARK  Name = ../refined-set-2016/3n9r/3n9r_pocket.pdb
REMARK  181 active torsions:
REMARK  status: ('A' for Active; 'I' for Inactive)
REMARK    1  A    between atoms: _1  and  _3
REMARK    2  A    between atoms: _3  and  _4
REMARK    3  A    between atoms: _7  and  _9
REMARK    4  A    between atoms: _9  and  _10
REMARK    5  A    between atoms: _9  and  _12
REMARK    6  A    between atoms: _12  and  _13
REMARK    7  A    between atoms: _18  and  _20
REMARK    8  A    between atoms: _20  and  _21
REMARK    9  A    between atoms: _20  and  _23
REMARK   10  A    between atoms: _23  and  _24
REMARK   11  A    between atoms: _24  and  _25
REMARK   12  A    between atoms: _30  and  _32
REMARK   13  A    between atoms: _32  and  _33
REMARK   14  A    between atoms: _32  and  _35
REMARK   15  A    between atoms: _35  and  _36
REMARK   16  A    between atoms: _38  and  _40
REMARK   17  A    between atoms: _40  and  _41
REMARK   18  A    between atoms: _40  and  _43
REMARK   19  A    between atoms: _43  and  _44
REMARK   20  A    between atoms: _47  and  _49
REMARK   21  A    between atoms: _49  and  _50
REMARK   22  A    between atoms: _49  and  _52
REMARK   23  A    between atoms: _52  and  _53
REMARK   24  A    between atoms: _57  and  ZN_424
REMARK   25  A    between atoms: _58  and  _60
REMARK   26  A    between atoms: _60  and  _61
REMARK   27  A    between atoms: _60  and  _63
REMARK   28  A    between atoms: _63  and  _64
REMARK   29  A    between atoms: _64  and  _65
REMARK   30  A    between atoms: _67  and  _69
REMARK   31  A    between atoms: _69  and  _70
REMARK   32  A    between atoms: _69  and  _72
REMARK   33  A    between atoms: _72  and  _73
REMARK   34  A    between atoms: _76  and  _78
REMARK   35  A    between atoms: _78  and  _79
REMARK   36  A    between atoms: _78  and  _81
REMARK   37  A    between atoms: _81  and  _82
REMARK   38  A    between atoms: _82  and  _83
REMARK   39  A    between atoms: _86  and  _88
REMARK   40  A    between atoms: _88  and  _89
REMARK   41  A    between atoms: _88  and  _91
REMARK   42  A    between atoms: _91  and  _92
REMARK   43  A    between atoms: _92  and  _93
REMARK   44  A    between atoms: _96  and  _98
REMARK   45  A    between atoms: _98  and  _99
REMARK   46  A    between atoms: _98  and  _101
REMARK   47  A    between atoms: _101  and  _102
REMARK   48  A    between atoms: _105  and  _107
REMARK   49  A    between atoms: _107  and  _108
REMARK   50  A    between atoms: _107  and  _110
REMARK   51  A    between atoms: _110  and  _111
REMARK   52  A    between atoms: _114  and  _116
REMARK   53  A    between atoms: _116  and  _117
REMARK   54  A    between atoms: _116  and  _119
REMARK   55  A    between atoms: _119  and  _120
REMARK   56  A    between atoms: _122  and  _124
REMARK   57  A    between atoms: _124  and  _125
REMARK   58  A    between atoms: _124  and  _127
REMARK   59  A    between atoms: _127  and  _128
REMARK   60  A    between atoms: _132  and  ZN_424
REMARK   61  A    between atoms: _133  and  _135
REMARK   62  A    between atoms: _135  and  _136
REMARK   63  A    between atoms: _138  and  _140
REMARK   64  A    between atoms: _140  and  _141
REMARK   65  A    between atoms: _144  and  _146
REMARK   66  A    between atoms: _146  and  _147
REMARK   67  A    between atoms: _146  and  _149
REMARK   68  A    between atoms: _149  and  _150
REMARK   69  A    between atoms: _156  and  _158
REMARK   70  A    between atoms: _158  and  _159
REMARK   71  A    between atoms: _158  and  _161
REMARK   72  A    between atoms: _161  and  _162
REMARK   73  A    between atoms: _162  and  _163
REMARK   74  A    between atoms: _163  and  _164
REMARK   75  A    between atoms: _164  and  _165
REMARK   76  A    between atoms: _169  and  _171
REMARK   77  A    between atoms: _171  and  _172
REMARK   78  A    between atoms: _171  and  _174
REMARK   79  A    between atoms: _177  and  _179
REMARK   80  A    between atoms: _179  and  _180
REMARK   81  A    between atoms: _179  and  _182
REMARK   82  A    between atoms: _182  and  _183
REMARK   83  A    between atoms: _186  and  _188
REMARK   84  A    between atoms: _188  and  _189
REMARK   85  A    between atoms: _188  and  _191
REMARK   86  A    between atoms: _191  and  _192
REMARK   87  A    between atoms: _193  and  ZN_424
REMARK   88  A    between atoms: _197  and  _199
REMARK   89  A    between atoms: _199  and  _200
REMARK   90  A    between atoms: _202  and  _204
REMARK   91  A    between atoms: _204  and  _205
REMARK   92  A    between atoms: _208  and  _210
REMARK   93  A    between atoms: _210  and  _211
REMARK   94  A    between atoms: _210  and  _213
REMARK   95  A    between atoms: _213  and  _214
REMARK   96  A    between atoms: _216  and  _218
REMARK   97  A    between atoms: _218  and  _219
REMARK   98  A    between atoms: _222  and  _224
REMARK   99  A    between atoms: _224  and  _225
REMARK  100  A    between atoms: _224  and  _227
REMARK  101  A    between atoms: _227  and  _228
REMARK  102  A    between atoms: _231  and  _233
REMARK  103  A    between atoms: _233  and  _234
REMARK  104  A    between atoms: _233  and  _236
REMARK  105  A    between atoms: _236  and  _237
REMARK  106  A    between atoms: _237  and  _238
REMARK  107  A    between atoms: _238  and  _239
REMARK  108  A    between atoms: _239  and  _240
REMARK  109  A    between atoms: _244  and  _246
REMARK  110  A    between atoms: _246  and  _247
REMARK  111  A    between atoms: _249  and  _251
REMARK  112  A    between atoms: _251  and  _252
REMARK  113  A    between atoms: _251  and  _254
REMARK  114  A    between atoms: _257  and  _259
REMARK  115  A    between atoms: _259  and  _260
REMARK  116  A    between atoms: _259  and  _262
REMARK  117  A    between atoms: _262  and  _263
REMARK  118  A    between atoms: _266  and  _268
REMARK  119  A    between atoms: _268  and  _269
REMARK  120  A    between atoms: _268  and  _271
REMARK  121  A    between atoms: _271  and  _272
REMARK  122  A    between atoms: _272  and  _273
REMARK  123  A    between atoms: _273  and  _274
REMARK  124  A    between atoms: _274  and  _275
REMARK  125  A    between atoms: _279  and  _281
REMARK  126  A    between atoms: _281  and  _282
REMARK  127  A    between atoms: _281  and  _284
REMARK  128  A    between atoms: _287  and  _289
REMARK  129  A    between atoms: _289  and  _290
REMARK  130  A    between atoms: _289  and  _292
REMARK  131  A    between atoms: _292  and  _293
REMARK  132  A    between atoms: _298  and  _300
REMARK  133  A    between atoms: _300  and  _301
REMARK  134  A    between atoms: _300  and  _303
REMARK  135  A    between atoms: _303  and  _304
REMARK  136  A    between atoms: _307  and  _309
REMARK  137  A    between atoms: _309  and  _310
REMARK  138  A    between atoms: _309  and  _312
REMARK  139  A    between atoms: _312  and  _313
REMARK  140  A    between atoms: _316  and  _318
REMARK  141  A    between atoms: _318  and  _319
REMARK  142  A    between atoms: _318  and  _321
REMARK  143  A    between atoms: _321  and  _322
REMARK  144  A    between atoms: _325  and  _327
REMARK  145  A    between atoms: _327  and  _328
REMARK  146  A    between atoms: _327  and  _330
REMARK  147  A    between atoms: _330  and  _331
REMARK  148  A    between atoms: _334  and  _336
REMARK  149  A    between atoms: _336  and  _337
REMARK  150  A    between atoms: _336  and  _339
REMARK  151  A    between atoms: _339  and  _340
REMARK  152  A    between atoms: _343  and  _345
REMARK  153  A    between atoms: _345  and  _346
REMARK  154  A    between atoms: _345  and  _348
REMARK  155  A    between atoms: _348  and  _349
REMARK  156  A    between atoms: _349  and  _350
REMARK  157  A    between atoms: _350  and  _351
REMARK  158  A    between atoms: _360  and  _362
REMARK  159  A    between atoms: _362  and  _363
REMARK  160  A    between atoms: _362  and  _365
REMARK  161  A    between atoms: _365  and  _366
REMARK  162  A    between atoms: _369  and  _371
REMARK  163  A    between atoms: _371  and  _372
REMARK  164  A    between atoms: _371  and  _374
REMARK  165  A    between atoms: _374  and  _375
REMARK  166  A    between atoms: _375  and  _376
REMARK  167  A    between atoms: _376  and  _377
REMARK  168  A    between atoms: _386  and  _388
REMARK  169  A    between atoms: _388  and  _389
REMARK  170  A    between atoms: _388  and  _391
REMARK  171  A    between atoms: _391  and  _392
REMARK  172  A    between atoms: _398  and  _400
REMARK  173  A    between atoms: _400  and  _401
REMARK  174  A    between atoms: _400  and  _403
REMARK  175  A    between atoms: _403  and  _404
REMARK  176  A    between atoms: _407  and  _409
REMARK  177  A    between atoms: _409  and  _410
REMARK  178  A    between atoms: _409  and  _412
REMARK  179  A    between atoms: _412  and  _413
REMARK  180  A    between atoms: _413  and  _414
REMARK  181  A    between atoms: _414  and  _415
REMARK                            x       y       z     vdW  Elec       q    Type
REMARK                         _______ _______ _______ _____ _____    ______ ____
ROOT
ATOM      1  CA  LEU A   1     -12.225 -14.674 -49.914  0.00  0.00    +0.133 C 
ENDROOT
BRANCH   1   2
ATOM      2  N   LEU A   1     -11.730 -16.039 -49.835  0.00  0.00    -0.239 NA
ATOM      3  H   LEU A   1     -10.975 -16.259 -49.155  0.00  0.00    +0.142 HD
ENDBRANCH   1   2
BRANCH   1   4
ATOM      4  C   LEU A   1     -11.763 -13.988 -51.192  0.00  0.00    +0.224 C 
ATOM      5  O   LEU A   1     -10.638 -13.510 -51.277  0.00  0.00    -0.287 OA
ENDBRANCH   1   4
BRANCH   1   6
ATOM      6  CB  LEU A   1     -11.714 -13.888 -48.709  0.00  0.00    +0.025 C 
BRANCH   6   7
ATOM      7  CG  LEU A   1     -12.699 -12.981 -47.975  0.00  0.00    +0.002 C 
ATOM      8  CD2 LEU A   1     -12.011 -12.403 -46.759  0.00  0.00    +0.000 C 
ATOM      9  CD1 LEU A   1     -13.966 -13.723 -47.576  0.00  0.00    +0.000 C 
ENDBRANCH   6   7
ENDBRANCH   1   6
TORSDOF 4
REMARK  Name = ../refined-set-2016/3n9r/3n9r_pocket.pdb
REMARK  181 active torsions:
REMARK  status: ('A' for Active; 'I' for Inactive)
REMARK    1  A    between atoms: _1  and  _3
REMARK    2  A    between atoms: _3  and  _4
REMARK    3  A    between atoms: _7  and  _9
REMARK    4  A    between atoms: _9  and  _10
REMARK    5  A    between atoms: _9  and  _12
REMARK    6  A    between atoms: _12  and  _13
REMARK    7  A    between atoms: _18  and  _20
REMARK    8  A    between atoms: _20  and  _21
REMARK    9  A    between atoms: _20  and  _23
REMARK   10  A    between atoms: _23  and  _24
REMARK   11  A    between atoms: _24  and  _25
REMARK   12  A    between atoms: _30  and  _32
REMARK   13  A    between atoms: _32  and  _33
REMARK   14  A    between atoms: _32  and  _35
REMARK   15  A    between atoms: _35  and  _36
REMARK   16  A    between atoms: _38  and  _40
REMARK   17  A    between atoms: _40  and  _41
REMARK   18  A    between atoms: _40  and  _43
REMARK   19  A    between atoms: _43  and  _44
REMARK   20  A    between atoms: _47  and  _49
REMARK   21  A    between atoms: _49  and  _50
REMARK   22  A    between atoms: _49  and  _52
REMARK   23  A    between atoms: _52  and  _53
REMARK   24  A    between atoms: _57  and  ZN_424
REMARK   25  A    between atoms: _58  and  _60
REMARK   26  A    between atoms: _60  and  _61
REMARK   27  A    between atoms: _60  and  _63
REMARK   28  A    between atoms: _63  and  _64
REMARK   29  A    between atoms: _64  and  _65
REMARK   30  A    between atoms: _67  and  _69
REMARK   31  A    between atoms: _69  and  _70
REMARK   32  A    between atoms: _69  and  _72
REMARK   33  A    between atoms: _72  and  _73
REMARK   34  A    between atoms: _76  and  _78
REMARK   35  A    between atoms: _78  and  _79
REMARK   36  A    between atoms: _78  and  _81
REMARK   37  A    between atoms: _81  and  _82
REMARK   38  A    between atoms: _82  and  _83
REMARK   39  A    between atoms: _86  and  _88
REMARK   40  A    between atoms: _88  and  _89
REMARK   41  A    between atoms: _88  and  _91
REMARK   42  A    between atoms: _91  and  _92
REMARK   43  A    between atoms: _92  and  _93
REMARK   44  A    between atoms: _96  and  _98
REMARK   45  A    between atoms: _98  and  _99
REMARK   46  A    between atoms: _98  and  _101
REMARK   47  A    between atoms: _101  and  _102
REMARK   48  A    between atoms: _105  and  _107
REMARK   49  A    between atoms: _107  and  _108
REMARK   50  A    between atoms: _107  and  _110
REMARK   51  A    between atoms: _110  and  _111
REMARK   52  A    between atoms: _114  and  _116
REMARK   53  A    between atoms: _116  and  _117
REMARK   54  A    between atoms: _116  and  _119
REMARK   55  A    between atoms: _119  and  _120
REMARK   56  A    between atoms: _122  and  _124
REMARK   57  A    between atoms: _124  and  _125
REMARK   58  A    between atoms: _124  and  _127
REMARK   59  A    between atoms: _127  and  _128
REMARK   60  A    between atoms: _132  and  ZN_424
REMARK   61  A    between atoms: _133  and  _135
REMARK   62  A    between atoms: _135  and  _136
REMARK   63  A    between atoms: _138  and  _140
REMARK   64  A    between atoms: _140  and  _141
REMARK   65  A    between atoms: _144  and  _146
REMARK   66  A    between atoms: _146  and  _147
REMARK   67  A    between atoms: _146  and  _149
REMARK   68  A    between atoms: _149  and  _150
REMARK   69  A    between atoms: _156  and  _158
REMARK   70  A    between atoms: _158  and  _159
REMARK   71  A    between atoms: _158  and  _161
REMARK   72  A    between atoms: _161  and  _162
REMARK   73  A    between atoms: _162  and  _163
REMARK   74  A    between atoms: _163  and  _164
REMARK   75  A    between atoms: _164  and  _165
REMARK   76  A    between atoms: _169  and  _171
REMARK   77  A    between atoms: _171  and  _172
REMARK   78  A    between atoms: _171  and  _174
REMARK   79  A    between atoms: _177  and  _179
REMARK   80  A    between atoms: _179  and  _180
REMARK   81  A    between atoms: _179  and  _182
REMARK   82  A    between atoms: _182  and  _183
REMARK   83  A    between atoms: _186  and  _188
REMARK   84  A    between atoms: _188  and  _189
REMARK   85  A    between atoms: _188  and  _191
REMARK   86  A    between atoms: _191  and  _192
REMARK   87  A    between atoms: _193  and  ZN_424
REMARK   88  A    between atoms: _197  and  _199
REMARK   89  A    between atoms: _199  and  _200
REMARK   90  A    between atoms: _202  and  _204
REMARK   91  A    between atoms: _204  and  _205
REMARK   92  A    between atoms: _208  and  _210
REMARK   93  A    between atoms: _210  and  _211
REMARK   94  A    between atoms: _210  and  _213
REMARK   95  A    between atoms: _213  and  _214
REMARK   96  A    between atoms: _216  and  _218
REMARK   97  A    between atoms: _218  and  _219
REMARK   98  A    between atoms: _222  and  _224
REMARK   99  A    between atoms: _224  and  _225
REMARK  100  A    between atoms: _224  and  _227
REMARK  101  A    between atoms: _227  and  _228
REMARK  102  A    between atoms: _231  and  _233
REMARK  103  A    between atoms: _233  and  _234
REMARK  104  A    between atoms: _233  and  _236
REMARK  105  A    between atoms: _236  and  _237
REMARK  106  A    between atoms: _237  and  _238
REMARK  107  A    between atoms: _238  and  _239
REMARK  108  A    between atoms: _239  and  _240
REMARK  109  A    between atoms: _244  and  _246
REMARK  110  A    between atoms: _246  and  _247
REMARK  111  A    between atoms: _249  and  _251
REMARK  112  A    between atoms: _251  and  _252
REMARK  113  A    between atoms: _251  and  _254
REMARK  114  A    between atoms: _257  and  _259
REMARK  115  A    between atoms: _259  and  _260
REMARK  116  A    between atoms: _259  and  _262
REMARK  117  A    between atoms: _262  and  _263
REMARK  118  A    between atoms: _266  and  _268
REMARK  119  A    between atoms: _268  and  _269
REMARK  120  A    between atoms: _268  and  _271
REMARK  121  A    between atoms: _271  and  _272
REMARK  122  A    between atoms: _272  and  _273
REMARK  123  A    between atoms: _273  and  _274
REMARK  124  A    between atoms: _274  and  _275
REMARK  125  A    between atoms: _279  and  _281
REMARK  126  A    between atoms: _281  and  _282
REMARK  127  A    between atoms: _281  and  _284
REMARK  128  A    between atoms: _287  and  _289
REMARK  129  A    between atoms: _289  and  _290
REMARK  130  A    between atoms: _289  and  _292
REMARK  131  A    between atoms: _292  and  _293
REMARK  132  A    between atoms: _298  and  _300
REMARK  133  A    between atoms: _300  and  _301
REMARK  134  A    between atoms: _300  and  _303
REMARK  135  A    between atoms: _303  and  _304
REMARK  136  A    between atoms: _307  and  _309
REMARK  137  A    between atoms: _309  and  _310
REMARK  138  A    between atoms: _309  and  _312
REMARK  139  A    between atoms: _312  and  _313
REMARK  140  A    between atoms: _316  and  _318
REMARK  141  A    between atoms: _318  and  _319
REMARK  142  A    between atoms: _318  and  _321
REMARK  143  A    between atoms: _321  and  _322
REMARK  144  A    between atoms: _325  and  _327
REMARK  145  A    between atoms: _327  and  _328
REMARK  146  A    between atoms: _327  and  _330
REMARK  147  A    between atoms: _330  and  _331
REMARK  148  A    between atoms: _334  and  _336
REMARK  149  A    between atoms: _336  and  _337
REMARK  150  A    between atoms: _336  and  _339
REMARK  151  A    between atoms: _339  and  _340
REMARK  152  A    between atoms: _343  and  _345
REMARK  153  A    between atoms: _345  and  _346
REMARK  154  A    between atoms: _345  and  _348
REMARK  155  A    between atoms: _348  and  _349
REMARK  156  A    between atoms: _349  and  _350
REMARK  157  A    between atoms: _350  and  _351
REMARK  158  A    between atoms: _360  and  _362
REMARK  159  A    between atoms: _362  and  _363
REMARK  160  A    between atoms: _362  and  _365
REMARK  161  A    between atoms: _365  and  _366
REMARK  162  A    between atoms: _369  and  _371
REMARK  163  A    between atoms: _371  and  _372
REMARK  164  A    between atoms: _371  and  _374
REMARK  165  A    between atoms: _374  and  _375
REMARK  166  A    between atoms: _375  and  _376
REMARK  167  A    between atoms: _376  and  _377
REMARK  168  A    between atoms: _386  and  _388
REMARK  169  A    between atoms: _388  and  _389
REMARK  170  A    between atoms: _388  and  _391
REMARK  171  A    between atoms: _391  and  _392
REMARK  172  A    between atoms: _398  and  _400
REMARK  173  A    between atoms: _400  and  _401
REMARK  174  A    between atoms: _400  and  _403
REMARK  175  A    between atoms: _403  and  _404
REMARK  176  A    between atoms: _407  and  _409
REMARK  177  A    between atoms: _409  and  _410
REMARK  178  A    between atoms: _409  and  _412
REMARK  179  A    between atoms: _412  and  _413
REMARK  180  A    between atoms: _413  and  _414
REMARK  181  A    between atoms: _414  and  _415
REMARK                            x       y       z     vdW  Elec       q    Type
REMARK                         _______ _______ _______ _____ _____    ______ ____
ROOT
ATOM      1  C   LYS A   1     -15.692  -1.098 -53.120  0.00  0.00    +0.238 C 
ATOM      2  N   GLY A   2     -16.631  -0.775 -52.234  0.00  0.00    -0.296 N 
ATOM      3  H   GLY A   2     -17.180   0.097 -52.375  0.00  0.00    +0.150 HD
ATOM      4  O   LYS A   1     -14.996  -2.101 -53.018  0.00  0.00    -0.274 OA
ENDROOT
BRANCH   1   5
ATOM      5  CA  LYS A   1     -15.505  -0.151 -54.303  0.00  0.00    +0.145 C 
BRANCH   5   6
ATOM      6  N   LYS A   1     -14.086   0.150 -54.427  0.00  0.00    -0.238 NA
ATOM      7  H   LYS A   1     -13.391  -0.531 -54.060  0.00  0.00    +0.142 HD
ENDBRANCH   5   6
BRANCH   5   8
ATOM      8  CB  LYS A   1     -16.016  -0.815 -55.583  0.00  0.00    +0.026 C 
BRANCH   8   9
ATOM      9  CG  LYS A   1     -17.481  -1.205 -55.547  0.00  0.00    -0.000 C 
BRANCH   9  10
ATOM     10  CD  LYS A   1     -18.382   0.011 -55.701  0.00  0.00    -0.024 C 
BRANCH  10  11
ATOM     11  CE  LYS A   1     -19.796  -0.387 -56.120  0.00  0.00    -0.086 C 
BRANCH  11  12
ATOM     12  NZ  LYS A   1     -20.742   0.766 -56.075  0.00  0.00    +0.380 N 
ATOM     13  HZ1 LYS A   1     -20.785   1.140 -55.106  0.00  0.00    -0.089 HD
ATOM     14  HZ2 LYS A   1     -21.688   0.448 -56.367  0.00  0.00    -0.089 HD
ATOM     15  HZ3 LYS A   1     -20.410   1.510 -56.721  0.00  0.00    -0.089 HD
ENDBRANCH  11  12
ENDBRANCH  10  11
ENDBRANCH   9  10
ENDBRANCH   8   9
ENDBRANCH   5   8
ENDBRANCH   1   5
BRANCH   2  16
ATOM     16  CA  GLY A   2     -16.911  -1.606 -51.075  0.00  0.00    +0.176 C 
BRANCH  16  17
ATOM     17  C   GLY A   2     -18.241  -2.325 -51.207  0.00  0.00    +0.243 C 
ATOM     18  N   VAL A   3     -18.660  -3.003 -50.138  0.00  0.00    -0.298 N 
ATOM     19  H   VAL A   3     -18.070  -3.019 -49.282  0.00  0.00    +0.150 HD
ATOM     20  O   GLY A   2     -18.874  -2.293 -52.264  0.00  0.00    -0.273 OA
BRANCH  18  21
ATOM     21  CA  VAL A   3     -19.929  -3.722 -50.144  0.00  0.00    +0.137 C 
BRANCH  21  22
ATOM     22  CB  VAL A   3     -20.031  -4.754 -48.977  0.00  0.00    +0.026 C 
ATOM     23  CG2 VAL A   3     -18.833  -5.719 -48.977  0.00  0.00    +0.002 C 
ATOM     24  CG1 VAL A   3     -21.330  -5.538 -49.078  0.00  0.00    +0.002 C 
ENDBRANCH  21  22
BRANCH  21  25
ATOM     25  C   VAL A   3     -21.059  -2.714 -49.985  0.00  0.00    +0.227 C 
ATOM     26  O   VAL A   3     -21.045  -1.916 -49.055  0.00  0.00    -0.286 OA
ENDBRANCH  21  25
ENDBRANCH  18  21
ENDBRANCH  16  17
ENDBRANCH   2  16
TORSDOF 12
REMARK  Name = ../refined-set-2016/3n9r/3n9r_pocket.pdb
REMARK  181 active torsions:
REMARK  status: ('A' for Active; 'I' for Inactive)
REMARK    1  A    between atoms: _1  and  _3
REMARK    2  A    between atoms: _3  and  _4
REMARK    3  A    between atoms: _7  and  _9
REMARK    4  A    between atoms: _9  and  _10
REMARK    5  A    between atoms: _9  and  _12
REMARK    6  A    between atoms: _12  and  _13
REMARK    7  A    between atoms: _18  and  _20
REMARK    8  A    between atoms: _20  and  _21
REMARK    9  A    between atoms: _20  and  _23
REMARK   10  A    between atoms: _23  and  _24
REMARK   11  A    between atoms: _24  and  _25
REMARK   12  A    between atoms: _30  and  _32
REMARK   13  A    between atoms: _32  and  _33
REMARK   14  A    between atoms: _32  and  _35
REMARK   15  A    between atoms: _35  and  _36
REMARK   16  A    between atoms: _38  and  _40
REMARK   17  A    between atoms: _40  and  _41
REMARK   18  A    between atoms: _40  and  _43
REMARK   19  A    between atoms: _43  and  _44
REMARK   20  A    between atoms: _47  and  _49
REMARK   21  A    between atoms: _49  and  _50
REMARK   22  A    between atoms: _49  and  _52
REMARK   23  A    between atoms: _52  and  _53
REMARK   24  A    between atoms: _57  and  ZN_424
REMARK   25  A    between atoms: _58  and  _60
REMARK   26  A    between atoms: _60  and  _61
REMARK   27  A    between atoms: _60  and  _63
REMARK   28  A    between atoms: _63  and  _64
REMARK   29  A    between atoms: _64  and  _65
REMARK   30  A    between atoms: _67  and  _69
REMARK   31  A    between atoms: _69  and  _70
REMARK   32  A    between atoms: _69  and  _72
REMARK   33  A    between atoms: _72  and  _73
REMARK   34  A    between atoms: _76  and  _78
REMARK   35  A    between atoms: _78  and  _79
REMARK   36  A    between atoms: _78  and  _81
REMARK   37  A    between atoms: _81  and  _82
REMARK   38  A    between atoms: _82  and  _83
REMARK   39  A    between atoms: _86  and  _88
REMARK   40  A    between atoms: _88  and  _89
REMARK   41  A    between atoms: _88  and  _91
REMARK   42  A    between atoms: _91  and  _92
REMARK   43  A    between atoms: _92  and  _93
REMARK   44  A    between atoms: _96  and  _98
REMARK   45  A    between atoms: _98  and  _99
REMARK   46  A    between atoms: _98  and  _101
REMARK   47  A    between atoms: _101  and  _102
REMARK   48  A    between atoms: _105  and  _107
REMARK   49  A    between atoms: _107  and  _108
REMARK   50  A    between atoms: _107  and  _110
REMARK   51  A    between atoms: _110  and  _111
REMARK   52  A    between atoms: _114  and  _116
REMARK   53  A    between atoms: _116  and  _117
REMARK   54  A    between atoms: _116  and  _119
REMARK   55  A    between atoms: _119  and  _120
REMARK   56  A    between atoms: _122  and  _124
REMARK   57  A    between atoms: _124  and  _125
REMARK   58  A    between atoms: _124  and  _127
REMARK   59  A    between atoms: _127  and  _128
REMARK   60  A    between atoms: _132  and  ZN_424
REMARK   61  A    between atoms: _133  and  _135
REMARK   62  A    between atoms: _135  and  _136
REMARK   63  A    between atoms: _138  and  _140
REMARK   64  A    between atoms: _140  and  _141
REMARK   65  A    between atoms: _144  and  _146
REMARK   66  A    between atoms: _146  and  _147
REMARK   67  A    between atoms: _146  and  _149
REMARK   68  A    between atoms: _149  and  _150
REMARK   69  A    between atoms: _156  and  _158
REMARK   70  A    between atoms: _158  and  _159
REMARK   71  A    between atoms: _158  and  _161
REMARK   72  A    between atoms: _161  and  _162
REMARK   73  A    between atoms: _162  and  _163
REMARK   74  A    between atoms: _163  and  _164
REMARK   75  A    between atoms: _164  and  _165
REMARK   76  A    between atoms: _169  and  _171
REMARK   77  A    between atoms: _171  and  _172
REMARK   78  A    between atoms: _171  and  _174
REMARK   79  A    between atoms: _177  and  _179
REMARK   80  A    between atoms: _179  and  _180
REMARK   81  A    between atoms: _179  and  _182
REMARK   82  A    between atoms: _182  and  _183
REMARK   83  A    between atoms: _186  and  _188
REMARK   84  A    between atoms: _188  and  _189
REMARK   85  A    between atoms: _188  and  _191
REMARK   86  A    between atoms: _191  and  _192
REMARK   87  A    between atoms: _193  and  ZN_424
REMARK   88  A    between atoms: _197  and  _199
REMARK   89  A    between atoms: _199  and  _200
REMARK   90  A    between atoms: _202  and  _204
REMARK   91  A    between atoms: _204  and  _205
REMARK   92  A    between atoms: _208  and  _210
REMARK   93  A    between atoms: _210  and  _211
REMARK   94  A    between atoms: _210  and  _213
REMARK   95  A    between atoms: _213  and  _214
REMARK   96  A    between atoms: _216  and  _218
REMARK   97  A    between atoms: _218  and  _219
REMARK   98  A    between atoms: _222  and  _224
REMARK   99  A    between atoms: _224  and  _225
REMARK  100  A    between atoms: _224  and  _227
REMARK  101  A    between atoms: _227  and  _228
REMARK  102  A    between atoms: _231  and  _233
REMARK  103  A    between atoms: _233  and  _234
REMARK  104  A    between atoms: _233  and  _236
REMARK  105  A    between atoms: _236  and  _237
REMARK  106  A    between atoms: _237  and  _238
REMARK  107  A    between atoms: _238  and  _239
REMARK  108  A    between atoms: _239  and  _240
REMARK  109  A    between atoms: _244  and  _246
REMARK  110  A    between atoms: _246  and  _247
REMARK  111  A    between atoms: _249  and  _251
REMARK  112  A    between atoms: _251  and  _252
REMARK  113  A    between atoms: _251  and  _254
REMARK  114  A    between atoms: _257  and  _259
REMARK  115  A    between atoms: _259  and  _260
REMARK  116  A    between atoms: _259  and  _262
REMARK  117  A    between atoms: _262  and  _263
REMARK  118  A    between atoms: _266  and  _268
REMARK  119  A    between atoms: _268  and  _269
REMARK  120  A    between atoms: _268  and  _271
REMARK  121  A    between atoms: _271  and  _272
REMARK  122  A    between atoms: _272  and  _273
REMARK  123  A    between atoms: _273  and  _274
REMARK  124  A    between atoms: _274  and  _275
REMARK  125  A    between atoms: _279  and  _281
REMARK  126  A    between atoms: _281  and  _282
REMARK  127  A    between atoms: _281  and  _284
REMARK  128  A    between atoms: _287  and  _289
REMARK  129  A    between atoms: _289  and  _290
REMARK  130  A    between atoms: _289  and  _292
REMARK  131  A    between atoms: _292  and  _293
REMARK  132  A    between atoms: _298  and  _300
REMARK  133  A    between atoms: _300  and  _301
REMARK  134  A    between atoms: _300  and  _303
REMARK  135  A    between atoms: _303  and  _304
REMARK  136  A    between atoms: _307  and  _309
REMARK  137  A    between atoms: _309  and  _310
REMARK  138  A    between atoms: _309  and  _312
REMARK  139  A    between atoms: _312  and  _313
REMARK  140  A    between atoms: _316  and  _318
REMARK  141  A    between atoms: _318  and  _319
REMARK  142  A    between atoms: _318  and  _321
REMARK  143  A    between atoms: _321  and  _322
REMARK  144  A    between atoms: _325  and  _327
REMARK  145  A    between atoms: _327  and  _328
REMARK  146  A    between atoms: _327  and  _330
REMARK  147  A    between atoms: _330  and  _331
REMARK  148  A    between atoms: _334  and  _336
REMARK  149  A    between atoms: _336  and  _337
REMARK  150  A    between atoms: _336  and  _339
REMARK  151  A    between atoms: _339  and  _340
REMARK  152  A    between atoms: _343  and  _345
REMARK  153  A    between atoms: _345  and  _346
REMARK  154  A    between atoms: _345  and  _348
REMARK  155  A    between atoms: _348  and  _349
REMARK  156  A    between atoms: _349  and  _350
REMARK  157  A    between atoms: _350  and  _351
REMARK  158  A    between atoms: _360  and  _362
REMARK  159  A    between atoms: _362  and  _363
REMARK  160  A    between atoms: _362  and  _365
REMARK  161  A    between atoms: _365  and  _366
REMARK  162  A    between atoms: _369  and  _371
REMARK  163  A    between atoms: _371  and  _372
REMARK  164  A    between atoms: _371  and  _374
REMARK  165  A    between atoms: _374  and  _375
REMARK  166  A    between atoms: _375  and  _376
REMARK  167  A    between atoms: _376  and  _377
REMARK  168  A    between atoms: _386  and  _388
REMARK  169  A    between atoms: _388  and  _389
REMARK  170  A    between atoms: _388  and  _391
REMARK  171  A    between atoms: _391  and  _392
REMARK  172  A    between atoms: _398  and  _400
REMARK  173  A    between atoms: _400  and  _401
REMARK  174  A    between atoms: _400  and  _403
REMARK  175  A    between atoms: _403  and  _404
REMARK  176  A    between atoms: _407  and  _409
REMARK  177  A    between atoms: _409  and  _410
REMARK  178  A    between atoms: _409  and  _412
REMARK  179  A    between atoms: _412  and  _413
REMARK  180  A    between atoms: _413  and  _414
REMARK  181  A    between atoms: _414  and  _415
REMARK                            x       y       z     vdW  Elec       q    Type
REMARK                         _______ _______ _______ _____ _____    ______ ____
ROOT
ATOM      1  CA  LEU A   1     -24.686  -5.726 -45.777  0.00  0.00    +0.133 C 
ENDROOT
BRANCH   1   2
ATOM      2  N   LEU A   1     -24.992  -5.417 -47.168  0.00  0.00    -0.239 NA
ATOM      3  H   LEU A   1     -24.827  -4.459 -47.537  0.00  0.00    +0.142 HD
ENDBRANCH   1   2
BRANCH   1   4
ATOM      4  C   LEU A   1     -25.969  -6.112 -45.045  0.00  0.00    +0.224 C 
ATOM      5  O   LEU A   1     -25.970  -7.046 -44.247  0.00  0.00    -0.287 OA
ENDBRANCH   1   4
BRANCH   1   6
ATOM      6  CB  LEU A   1     -23.964  -4.560 -45.076  0.00  0.00    +0.025 C 
BRANCH   6   7
ATOM      7  CG  LEU A   1     -22.544  -4.288 -45.607  0.00  0.00    +0.002 C 
ATOM      8  CD2 LEU A   1     -21.983  -3.010 -44.991  0.00  0.00    +0.000 C 
ATOM      9  CD1 LEU A   1     -21.598  -5.475 -45.335  0.00  0.00    +0.000 C 
ENDBRANCH   6   7
ENDBRANCH   1   6
TORSDOF 4
REMARK  Name = ../refined-set-2016/3n9r/3n9r_pocket.pdb
REMARK  181 active torsions:
REMARK  status: ('A' for Active; 'I' for Inactive)
REMARK    1  A    between atoms: _1  and  _3
REMARK    2  A    between atoms: _3  and  _4
REMARK    3  A    between atoms: _7  and  _9
REMARK    4  A    between atoms: _9  and  _10
REMARK    5  A    between atoms: _9  and  _12
REMARK    6  A    between atoms: _12  and  _13
REMARK    7  A    between atoms: _18  and  _20
REMARK    8  A    between atoms: _20  and  _21
REMARK    9  A    between atoms: _20  and  _23
REMARK   10  A    between atoms: _23  and  _24
REMARK   11  A    between atoms: _24  and  _25
REMARK   12  A    between atoms: _30  and  _32
REMARK   13  A    between atoms: _32  and  _33
REMARK   14  A    between atoms: _32  and  _35
REMARK   15  A    between atoms: _35  and  _36
REMARK   16  A    between atoms: _38  and  _40
REMARK   17  A    between atoms: _40  and  _41
REMARK   18  A    between atoms: _40  and  _43
REMARK   19  A    between atoms: _43  and  _44
REMARK   20  A    between atoms: _47  and  _49
REMARK   21  A    between atoms: _49  and  _50
REMARK   22  A    between atoms: _49  and  _52
REMARK   23  A    between atoms: _52  and  _53
REMARK   24  A    between atoms: _57  and  ZN_424
REMARK   25  A    between atoms: _58  and  _60
REMARK   26  A    between atoms: _60  and  _61
REMARK   27  A    between atoms: _60  and  _63
REMARK   28  A    between atoms: _63  and  _64
REMARK   29  A    between atoms: _64  and  _65
REMARK   30  A    between atoms: _67  and  _69
REMARK   31  A    between atoms: _69  and  _70
REMARK   32  A    between atoms: _69  and  _72
REMARK   33  A    between atoms: _72  and  _73
REMARK   34  A    between atoms: _76  and  _78
REMARK   35  A    between atoms: _78  and  _79
REMARK   36  A    between atoms: _78  and  _81
REMARK   37  A    between atoms: _81  and  _82
REMARK   38  A    between atoms: _82  and  _83
REMARK   39  A    between atoms: _86  and  _88
REMARK   40  A    between atoms: _88  and  _89
REMARK   41  A    between atoms: _88  and  _91
REMARK   42  A    between atoms: _91  and  _92
REMARK   43  A    between atoms: _92  and  _93
REMARK   44  A    between atoms: _96  and  _98
REMARK   45  A    between atoms: _98  and  _99
REMARK   46  A    between atoms: _98  and  _101
REMARK   47  A    between atoms: _101  and  _102
REMARK   48  A    between atoms: _105  and  _107
REMARK   49  A    between atoms: _107  and  _108
REMARK   50  A    between atoms: _107  and  _110
REMARK   51  A    between atoms: _110  and  _111
REMARK   52  A    between atoms: _114  and  _116
REMARK   53  A    between atoms: _116  and  _117
REMARK   54  A    between atoms: _116  and  _119
REMARK   55  A    between atoms: _119  and  _120
REMARK   56  A    between atoms: _122  and  _124
REMARK   57  A    between atoms: _124  and  _125
REMARK   58  A    between atoms: _124  and  _127
REMARK   59  A    between atoms: _127  and  _128
REMARK   60  A    between atoms: _132  and  ZN_424
REMARK   61  A    between atoms: _133  and  _135
REMARK   62  A    between atoms: _135  and  _136
REMARK   63  A    between atoms: _138  and  _140
REMARK   64  A    between atoms: _140  and  _141
REMARK   65  A    between atoms: _144  and  _146
REMARK   66  A    between atoms: _146  and  _147
REMARK   67  A    between atoms: _146  and  _149
REMARK   68  A    between atoms: _149  and  _150
REMARK   69  A    between atoms: _156  and  _158
REMARK   70  A    between atoms: _158  and  _159
REMARK   71  A    between atoms: _158  and  _161
REMARK   72  A    between atoms: _161  and  _162
REMARK   73  A    between atoms: _162  and  _163
REMARK   74  A    between atoms: _163  and  _164
REMARK   75  A    between atoms: _164  and  _165
REMARK   76  A    between atoms: _169  and  _171
REMARK   77  A    between atoms: _171  and  _172
REMARK   78  A    between atoms: _171  and  _174
REMARK   79  A    between atoms: _177  and  _179
REMARK   80  A    between atoms: _179  and  _180
REMARK   81  A    between atoms: _179  and  _182
REMARK   82  A    between atoms: _182  and  _183
REMARK   83  A    between atoms: _186  and  _188
REMARK   84  A    between atoms: _188  and  _189
REMARK   85  A    between atoms: _188  and  _191
REMARK   86  A    between atoms: _191  and  _192
REMARK   87  A    between atoms: _193  and  ZN_424
REMARK   88  A    between atoms: _197  and  _199
REMARK   89  A    between atoms: _199  and  _200
REMARK   90  A    between atoms: _202  and  _204
REMARK   91  A    between atoms: _204  and  _205
REMARK   92  A    between atoms: _208  and  _210
REMARK   93  A    between atoms: _210  and  _211
REMARK   94  A    between atoms: _210  and  _213
REMARK   95  A    between atoms: _213  and  _214
REMARK   96  A    between atoms: _216  and  _218
REMARK   97  A    between atoms: _218  and  _219
REMARK   98  A    between atoms: _222  and  _224
REMARK   99  A    between atoms: _224  and  _225
REMARK  100  A    between atoms: _224  and  _227
REMARK  101  A    between atoms: _227  and  _228
REMARK  102  A    between atoms: _231  and  _233
REMARK  103  A    between atoms: _233  and  _234
REMARK  104  A    between atoms: _233  and  _236
REMARK  105  A    between atoms: _236  and  _237
REMARK  106  A    between atoms: _237  and  _238
REMARK  107  A    between atoms: _238  and  _239
REMARK  108  A    between atoms: _239  and  _240
REMARK  109  A    between atoms: _244  and  _246
REMARK  110  A    between atoms: _246  and  _247
REMARK  111  A    between atoms: _249  and  _251
REMARK  112  A    between atoms: _251  and  _252
REMARK  113  A    between atoms: _251  and  _254
REMARK  114  A    between atoms: _257  and  _259
REMARK  115  A    between atoms: _259  and  _260
REMARK  116  A    between atoms: _259  and  _262
REMARK  117  A    between atoms: _262  and  _263
REMARK  118  A    between atoms: _266  and  _268
REMARK  119  A    between atoms: _268  and  _269
REMARK  120  A    between atoms: _268  and  _271
REMARK  121  A    between atoms: _271  and  _272
REMARK  122  A    between atoms: _272  and  _273
REMARK  123  A    between atoms: _273  and  _274
REMARK  124  A    between atoms: _274  and  _275
REMARK  125  A    between atoms: _279  and  _281
REMARK  126  A    between atoms: _281  and  _282
REMARK  127  A    between atoms: _281  and  _284
REMARK  128  A    between atoms: _287  and  _289
REMARK  129  A    between atoms: _289  and  _290
REMARK  130  A    between atoms: _289  and  _292
REMARK  131  A    between atoms: _292  and  _293
REMARK  132  A    between atoms: _298  and  _300
REMARK  133  A    between atoms: _300  and  _301
REMARK  134  A    between atoms: _300  and  _303
REMARK  135  A    between atoms: _303  and  _304
REMARK  136  A    between atoms: _307  and  _309
REMARK  137  A    between atoms: _309  and  _310
REMARK  138  A    between atoms: _309  and  _312
REMARK  139  A    between atoms: _312  and  _313
REMARK  140  A    between atoms: _316  and  _318
REMARK  141  A    between atoms: _318  and  _319
REMARK  142  A    between atoms: _318  and  _321
REMARK  143  A    between atoms: _321  and  _322
REMARK  144  A    between atoms: _325  and  _327
REMARK  145  A    between atoms: _327  and  _328
REMARK  146  A    between atoms: _327  and  _330
REMARK  147  A    between atoms: _330  and  _331
REMARK  148  A    between atoms: _334  and  _336
REMARK  149  A    between atoms: _336  and  _337
REMARK  150  A    between atoms: _336  and  _339
REMARK  151  A    between atoms: _339  and  _340
REMARK  152  A    between atoms: _343  and  _345
REMARK  153  A    between atoms: _345  and  _346
REMARK  154  A    between atoms: _345  and  _348
REMARK  155  A    between atoms: _348  and  _349
REMARK  156  A    between atoms: _349  and  _350
REMARK  157  A    between atoms: _350  and  _351
REMARK  158  A    between atoms: _360  and  _362
REMARK  159  A    between atoms: _362  and  _363
REMARK  160  A    between atoms: _362  and  _365
REMARK  161  A    between atoms: _365  and  _366
REMARK  162  A    between atoms: _369  and  _371
REMARK  163  A    between atoms: _371  and  _372
REMARK  164  A    between atoms: _371  and  _374
REMARK  165  A    between atoms: _374  and  _375
REMARK  166  A    between atoms: _375  and  _376
REMARK  167  A    between atoms: _376  and  _377
REMARK  168  A    between atoms: _386  and  _388
REMARK  169  A    between atoms: _388  and  _389
REMARK  170  A    between atoms: _388  and  _391
REMARK  171  A    between atoms: _391  and  _392
REMARK  172  A    between atoms: _398  and  _400
REMARK  173  A    between atoms: _400  and  _401
REMARK  174  A    between atoms: _400  and  _403
REMARK  175  A    between atoms: _403  and  _404
REMARK  176  A    between atoms: _407  and  _409
REMARK  177  A    between atoms: _409  and  _410
REMARK  178  A    between atoms: _409  and  _412
REMARK  179  A    between atoms: _412  and  _413
REMARK  180  A    between atoms: _413  and  _414
REMARK  181  A    between atoms: _414  and  _415
REMARK                            x       y       z     vdW  Elec       q    Type
REMARK                         _______ _______ _______ _____ _____    ______ ____
ROOT
ATOM      1  C   ASP A   5     -11.170  -0.975 -41.852  0.00  0.00    +0.241 C 
ATOM      2  O   ASP A   5     -10.955   0.150 -41.451  0.00  0.00    -0.273 OA
ATOM      3  N   THR A   6     -11.174  -1.280 -43.145  0.00  0.00    -0.295 N 
ATOM      4  H   THR A   6     -11.420  -2.248 -43.434  0.00  0.00    +0.150 HD
ENDROOT
BRANCH   3   5
ATOM      5  CA  THR A   6     -10.841  -0.290 -44.179  0.00  0.00    +0.176 C 
BRANCH   5   6
ATOM      6  C   THR A   6     -11.649   1.012 -44.063  0.00  0.00    +0.243 C 
ATOM      7  N   ASP A   7     -12.953   0.909 -43.849  0.00  0.00    -0.296 N 
ATOM      8  H   ASP A   7     -13.397  -0.030 -43.796  0.00  0.00    +0.150 HD
ATOM      9  O   THR A   6     -11.087   2.112 -44.136  0.00  0.00    -0.273 OA
BRANCH   7  10
ATOM     10  CA  ASP A   7     -13.772   2.115 -43.687  0.00  0.00    +0.160 C 
BRANCH  10  11
ATOM     11  C   ASP A   7     -13.248   3.011 -42.587  0.00  0.00    +0.241 C 
ATOM     12  N   LEU A   8     -12.873   2.394 -41.464  0.00  0.00    -0.297 N 
ATOM     13  H   LEU A   8     -12.933   1.357 -41.409  0.00  0.00    +0.150 HD
ATOM     14  O   ASP A   7     -13.204   4.241 -42.742  0.00  0.00    -0.273 OA
BRANCH  12  15
ATOM     15  CA  LEU A   8     -12.383   3.138 -40.318  0.00  0.00    +0.149 C 
BRANCH  15  16
ATOM     16  C   LEU A   8     -11.075   3.846 -40.662  0.00  0.00    +0.241 C 
ATOM     17  O   LEU A   8     -10.880   5.000 -40.296  0.00  0.00    -0.273 OA
ATOM     18  N   ARG A   9     -10.175   3.139 -41.344  0.00  0.00    -0.297 N 
ATOM     19  H   ARG A   9     -10.392   2.159 -41.617  0.00  0.00    +0.150 HD
BRANCH  18  20
ATOM     20  CA  ARG A   9      -8.888   3.721 -41.714  0.00  0.00    +0.149 C 
BRANCH  20  21
ATOM     21  C   ARG A   9      -9.075   4.924 -42.655  0.00  0.00    +0.241 C 
ATOM     22  O   ARG A   9      -8.452   5.964 -42.470  0.00  0.00    -0.273 OA
ATOM     23  N   ILE A  10      -9.904   4.775 -43.685  0.00  0.00    -0.298 N 
ATOM     24  H   ILE A  10     -10.461   3.902 -43.784  0.00  0.00    +0.150 HD
BRANCH  23  25
ATOM     25  CA  ILE A  10     -10.030   5.843 -44.680  0.00  0.00    +0.137 C 
BRANCH  25  26
ATOM     26  CB  ILE A  10     -10.915   5.410 -45.886  0.00  0.00    +0.026 C 
ATOM     27  CG2 ILE A  10     -11.125   6.565 -46.851  0.00  0.00    +0.002 C 
BRANCH  26  28
ATOM     28  CG1 ILE A  10     -10.265   4.236 -46.636  0.00  0.00    +0.002 C 
ATOM     29  CD1 ILE A  10     -11.156   3.616 -47.730  0.00  0.00    +0.000 C 
ENDBRANCH  26  28
ENDBRANCH  25  26
BRANCH  25  30
ATOM     30  C   ILE A  10     -10.591   7.103 -44.012  0.00  0.00    +0.227 C 
ATOM     31  O   ILE A  10     -10.104   8.221 -44.231  0.00  0.00    -0.286 OA
ENDBRANCH  25  30
ENDBRANCH  23  25
ENDBRANCH  20  21
BRANCH  20  32
ATOM     32  CB  ARG A   9      -8.006   2.687 -42.418  0.00  0.00    +0.033 C 
BRANCH  32  33
ATOM     33  CG  ARG A   9      -7.632   1.462 -41.590  0.00  0.00    +0.045 C 
BRANCH  33  34
ATOM     34  CD  ARG A   9      -6.824   0.502 -42.468  0.00  0.00    +0.174 C 
BRANCH  34  35
ATOM     35  NE  ARG A   9      -6.619  -0.782 -41.822  0.00  0.00    -0.265 N 
ATOM     36  HE  ARG A   9      -7.282  -1.058 -41.070  0.00  0.00    +0.259 HD
ATOM     37  CZ  ARG A   9      -5.640  -1.628 -42.127  0.00  0.00    +0.342 C 
ATOM     38  NH2 ARG A   9      -5.537  -2.783 -41.479  0.00  0.00    -0.292 N 
ATOM     39 HH21 ARG A   9      -6.222  -3.024 -40.734  0.00  0.00    +0.255 HD
ATOM     40 HH22 ARG A   9      -4.772  -3.446 -41.716  0.00  0.00    +0.255 HD
ATOM     41  NH1 ARG A   9      -4.763  -1.318 -43.075  0.00  0.00    -0.292 N 
ATOM     42 HH11 ARG A   9      -3.998  -1.981 -43.312  0.00  0.00    +0.255 HD
ATOM     43 HH12 ARG A   9      -4.842  -0.412 -43.580  0.00  0.00    +0.255 HD
ENDBRANCH  34  35
ENDBRANCH  33  34
ENDBRANCH  32  33
ENDBRANCH  20  32
ENDBRANCH  18  20
ENDBRANCH  15  16
BRANCH  15  44
ATOM     44  CB  LEU A   8     -12.143   2.214 -39.117  0.00  0.00    +0.029 C 
BRANCH  44  45
ATOM     45  CG  LEU A   8     -13.407   1.784 -38.360  0.00  0.00    +0.002 C 
ATOM     46  CD2 LEU A   8     -13.032   0.761 -37.281  0.00  0.00    +0.000 C 
ATOM     47  CD1 LEU A   8     -14.447   1.230 -39.299  0.00  0.00    +0.000 C 
ENDBRANCH  44  45
ENDBRANCH  15  44
ENDBRANCH  12  15
ENDBRANCH  10  11
BRANCH  10  48
ATOM     48  CB  ASP A   7     -15.215   1.765 -43.345  0.00  0.00    +0.143 C 
BRANCH  48  49
ATOM     49  CG  ASP A   7     -15.999   1.343 -44.545  0.00  0.00    +0.367 C 
ATOM     50  OD2 ASP A   7     -17.136   0.882 -44.351  0.00  0.00    -0.246 OA
ATOM     51  OD1 ASP A   7     -15.469   1.456 -45.669  0.00  0.00    -0.246 OA
ENDBRANCH  48  49
ENDBRANCH  10  48
ENDBRANCH   7  10
ENDBRANCH   5   6
BRANCH   5  52
ATOM     52  CB  THR A   6     -10.989  -0.918 -45.568  0.00  0.00    +0.137 C 
ATOM     53  CG2 THR A   6     -10.796   0.127 -46.690  0.00  0.00    +0.034 C 
BRANCH  52  54
ATOM     54  OG1 THR A   6     -10.010  -1.956 -45.706  0.00  0.00    -0.382 OA
ATOM     55  HG1 THR A   6      -9.104  -1.569 -45.605  0.00  0.00    +0.210 HD
ENDBRANCH  52  54
ENDBRANCH   5  52
ENDBRANCH   3   5
BRANCH   1  56
ATOM     56  CA  ASP A   5     -11.495  -2.099 -40.857  0.00  0.00    +0.160 C 
BRANCH  56  59
ATOM     57  C   THR A   4     -13.649  -3.018 -40.202  0.00  0.00    +0.243 C 
ATOM     58  O   THR A   4     -13.448  -2.788 -39.023  0.00  0.00    -0.273 OA
ATOM     59  N   ASP A   5     -12.798  -2.665 -41.159  0.00  0.00    -0.296 N 
ATOM     60  H   ASP A   5     -13.073  -2.798 -42.153  0.00  0.00    +0.150 HD
BRANCH  57  61
ATOM     61  CA  THR A   4     -14.931  -3.711 -40.649  0.00  0.00    +0.176 C 
BRANCH  61  63
ATOM     62  C   ASN A   3     -15.429  -6.080 -40.716  0.00  0.00    +0.241 C 
ATOM     63  N   THR A   4     -15.014  -5.022 -40.033  0.00  0.00    -0.295 N 
ATOM     64  H   THR A   4     -14.742  -5.134 -39.035  0.00  0.00    +0.150 HD
ATOM     65  O   ASN A   3     -15.584  -6.082 -41.925  0.00  0.00    -0.273 OA
BRANCH  62  66
ATOM     66  CA  ASN A   3     -15.643  -7.335 -39.922  0.00  0.00    +0.158 C 
BRANCH  66  69
ATOM     67  C   VAL A   2     -18.052  -7.297 -39.563  0.00  0.00    +0.241 C 
ATOM     68  O   VAL A   2     -17.991  -6.236 -38.955  0.00  0.00    -0.273 OA
ATOM     69  N   ASN A   3     -16.989  -7.873 -40.121  0.00  0.00    -0.297 N 
ATOM     70  H   ASN A   3     -17.118  -8.721 -40.709  0.00  0.00    +0.150 HD
BRANCH  67  71
ATOM     71  CA  VAL A   2     -19.381  -8.040 -39.694  0.00  0.00    +0.148 C 
BRANCH  71  73
ATOM     72  C   LYS A   1     -19.905  -9.989 -38.366  0.00  0.00    +0.238 C 
ATOM     73  N   VAL A   2     -19.658  -8.693 -38.415  0.00  0.00    -0.297 N 
ATOM     74  H   VAL A   2     -19.660  -8.133 -37.539  0.00  0.00    +0.150 HD
ATOM     75  O   LYS A   1     -19.756 -10.719 -39.332  0.00  0.00    -0.274 OA
BRANCH  72  76
ATOM     76  CA  LYS A   1     -20.425 -10.554 -37.050  0.00  0.00    +0.145 C 
BRANCH  76  77
ATOM     77  N   LYS A   1     -21.649 -11.313 -37.382  0.00  0.00    -0.238 NA
ATOM     78  H   LYS A   1     -21.626 -12.008 -38.155  0.00  0.00    +0.142 HD
ENDBRANCH  76  77
BRANCH  76  79
ATOM     79  CB  LYS A   1     -19.390 -11.467 -36.391  0.00  0.00    +0.026 C 
BRANCH  79  80
ATOM     80  CG  LYS A   1     -18.019 -10.795 -36.051  0.00  0.00    -0.000 C 
BRANCH  80  81
ATOM     81  CD  LYS A   1     -17.064 -11.802 -35.369  0.00  0.00    -0.024 C 
BRANCH  81  82
ATOM     82  CE  LYS A   1     -15.644 -11.230 -35.132  0.00  0.00    -0.086 C 
BRANCH  82  83
ATOM     83  NZ  LYS A   1     -14.826 -11.422 -36.374  0.00  0.00    +0.380 N 
ATOM     84  HZ1 LYS A   1     -13.871 -11.040 -36.221  0.00  0.00    -0.089 HD
ATOM     85  HZ2 LYS A   1     -14.764 -12.437 -36.593  0.00  0.00    -0.089 HD
ATOM     86  HZ3 LYS A   1     -15.278 -10.922 -37.166  0.00  0.00    -0.089 HD
ENDBRANCH  82  83
ENDBRANCH  81  82
ENDBRANCH  80  81
ENDBRANCH  79  80
ENDBRANCH  76  79
ENDBRANCH  72  76
ENDBRANCH  71  73
BRANCH  71  87
ATOM     87  CB  VAL A   2     -20.515  -7.071 -40.059  0.00  0.00    +0.027 C 
ATOM     88  CG2 VAL A   2     -21.896  -7.794 -39.962  0.00  0.00    +0.002 C 
ATOM     89  CG1 VAL A   2     -20.298  -6.481 -41.441  0.00  0.00    +0.002 C 
ENDBRANCH  71  87
ENDBRANCH  67  71
ENDBRANCH  66  69
BRANCH  66  90
ATOM     90  CB  ASN A   3     -14.581  -8.338 -40.356  0.00  0.00    +0.114 C 
BRANCH  90  91
ATOM     91  CG  ASN A   3     -14.470  -9.511 -39.428  0.00  0.00    +0.222 C 
ATOM     92  OD1 ASN A   3     -15.400  -9.829 -38.687  0.00  0.00    -0.275 OA
ATOM     93  ND2 ASN A   3     -13.310 -10.176 -39.461  0.00  0.00    -0.329 N 
ATOM     94 HD21 ASN A   3     -13.165 -11.000 -38.843  0.00  0.00    +0.145 HD
ATOM     95 HD22 ASN A   3     -12.553  -9.869 -40.105  0.00  0.00    +0.145 HD
ENDBRANCH  90  91
ENDBRANCH  66  90
ENDBRANCH  62  66
ENDBRANCH  61  63
BRANCH  61  96
ATOM     96  CB  THR A   4     -16.134  -2.861 -40.245  0.00  0.00    +0.137 C 
ATOM     97  CG2 THR A   4     -16.197  -1.594 -41.092  0.00  0.00    +0.034 C 
BRANCH  96  98
ATOM     98  OG1 THR A   4     -17.333  -3.625 -40.413  0.00  0.00    -0.382 OA
ATOM     99  HG1 THR A   4     -17.291  -4.433 -39.842  0.00  0.00    +0.210 HD
ENDBRANCH  96  98
ENDBRANCH  61  96
ENDBRANCH  57  61
ENDBRANCH  56  59
BRANCH  56 100
ATOM    100  CB  ASP A   5     -10.442  -3.212 -40.913  0.00  0.00    +0.143 C 
BRANCH 100 101
ATOM    101  CG  ASP A   5      -9.052  -2.752 -40.489  0.00  0.00    +0.367 C 
ATOM    102  OD2 ASP A   5      -8.843  -1.552 -40.199  0.00  0.00    -0.246 OA
ATOM    103  OD1 ASP A   5      -8.154  -3.618 -40.446  0.00  0.00    -0.246 OA
ENDBRANCH 100 101
ENDBRANCH  56 100
ENDBRANCH   1  56
TORSDOF 44
REMARK  Name = ../refined-set-2016/3n9r/3n9r_pocket.pdb
REMARK  181 active torsions:
REMARK  status: ('A' for Active; 'I' for Inactive)
REMARK    1  A    between atoms: _1  and  _3
REMARK    2  A    between atoms: _3  and  _4
REMARK    3  A    between atoms: _7  and  _9
REMARK    4  A    between atoms: _9  and  _10
REMARK    5  A    between atoms: _9  and  _12
REMARK    6  A    between atoms: _12  and  _13
REMARK    7  A    between atoms: _18  and  _20
REMARK    8  A    between atoms: _20  and  _21
REMARK    9  A    between atoms: _20  and  _23
REMARK   10  A    between atoms: _23  and  _24
REMARK   11  A    between atoms: _24  and  _25
REMARK   12  A    between atoms: _30  and  _32
REMARK   13  A    between atoms: _32  and  _33
REMARK   14  A    between atoms: _32  and  _35
REMARK   15  A    between atoms: _35  and  _36
REMARK   16  A    between atoms: _38  and  _40
REMARK   17  A    between atoms: _40  and  _41
REMARK   18  A    between atoms: _40  and  _43
REMARK   19  A    between atoms: _43  and  _44
REMARK   20  A    between atoms: _47  and  _49
REMARK   21  A    between atoms: _49  and  _50
REMARK   22  A    between atoms: _49  and  _52
REMARK   23  A    between atoms: _52  and  _53
REMARK   24  A    between atoms: _57  and  ZN_424
REMARK   25  A    between atoms: _58  and  _60
REMARK   26  A    between atoms: _60  and  _61
REMARK   27  A    between atoms: _60  and  _63
REMARK   28  A    between atoms: _63  and  _64
REMARK   29  A    between atoms: _64  and  _65
REMARK   30  A    between atoms: _67  and  _69
REMARK   31  A    between atoms: _69  and  _70
REMARK   32  A    between atoms: _69  and  _72
REMARK   33  A    between atoms: _72  and  _73
REMARK   34  A    between atoms: _76  and  _78
REMARK   35  A    between atoms: _78  and  _79
REMARK   36  A    between atoms: _78  and  _81
REMARK   37  A    between atoms: _81  and  _82
REMARK   38  A    between atoms: _82  and  _83
REMARK   39  A    between atoms: _86  and  _88
REMARK   40  A    between atoms: _88  and  _89
REMARK   41  A    between atoms: _88  and  _91
REMARK   42  A    between atoms: _91  and  _92
REMARK   43  A    between atoms: _92  and  _93
REMARK   44  A    between atoms: _96  and  _98
REMARK   45  A    between atoms: _98  and  _99
REMARK   46  A    between atoms: _98  and  _101
REMARK   47  A    between atoms: _101  and  _102
REMARK   48  A    between atoms: _105  and  _107
REMARK   49  A    between atoms: _107  and  _108
REMARK   50  A    between atoms: _107  and  _110
REMARK   51  A    between atoms: _110  and  _111
REMARK   52  A    between atoms: _114  and  _116
REMARK   53  A    between atoms: _116  and  _117
REMARK   54  A    between atoms: _116  and  _119
REMARK   55  A    between atoms: _119  and  _120
REMARK   56  A    between atoms: _122  and  _124
REMARK   57  A    between atoms: _124  and  _125
REMARK   58  A    between atoms: _124  and  _127
REMARK   59  A    between atoms: _127  and  _128
REMARK   60  A    between atoms: _132  and  ZN_424
REMARK   61  A    between atoms: _133  and  _135
REMARK   62  A    between atoms: _135  and  _136
REMARK   63  A    between atoms: _138  and  _140
REMARK   64  A    between atoms: _140  and  _141
REMARK   65  A    between atoms: _144  and  _146
REMARK   66  A    between atoms: _146  and  _147
REMARK   67  A    between atoms: _146  and  _149
REMARK   68  A    between atoms: _149  and  _150
REMARK   69  A    between atoms: _156  and  _158
REMARK   70  A    between atoms: _158  and  _159
REMARK   71  A    between atoms: _158  and  _161
REMARK   72  A    between atoms: _161  and  _162
REMARK   73  A    between atoms: _162  and  _163
REMARK   74  A    between atoms: _163  and  _164
REMARK   75  A    between atoms: _164  and  _165
REMARK   76  A    between atoms: _169  and  _171
REMARK   77  A    between atoms: _171  and  _172
REMARK   78  A    between atoms: _171  and  _174
REMARK   79  A    between atoms: _177  and  _179
REMARK   80  A    between atoms: _179  and  _180
REMARK   81  A    between atoms: _179  and  _182
REMARK   82  A    between atoms: _182  and  _183
REMARK   83  A    between atoms: _186  and  _188
REMARK   84  A    between atoms: _188  and  _189
REMARK   85  A    between atoms: _188  and  _191
REMARK   86  A    between atoms: _191  and  _192
REMARK   87  A    between atoms: _193  and  ZN_424
REMARK   88  A    between atoms: _197  and  _199
REMARK   89  A    between atoms: _199  and  _200
REMARK   90  A    between atoms: _202  and  _204
REMARK   91  A    between atoms: _204  and  _205
REMARK   92  A    between atoms: _208  and  _210
REMARK   93  A    between atoms: _210  and  _211
REMARK   94  A    between atoms: _210  and  _213
REMARK   95  A    between atoms: _213  and  _214
REMARK   96  A    between atoms: _216  and  _218
REMARK   97  A    between atoms: _218  and  _219
REMARK   98  A    between atoms: _222  and  _224
REMARK   99  A    between atoms: _224  and  _225
REMARK  100  A    between atoms: _224  and  _227
REMARK  101  A    between atoms: _227  and  _228
REMARK  102  A    between atoms: _231  and  _233
REMARK  103  A    between atoms: _233  and  _234
REMARK  104  A    between atoms: _233  and  _236
REMARK  105  A    between atoms: _236  and  _237
REMARK  106  A    between atoms: _237  and  _238
REMARK  107  A    between atoms: _238  and  _239
REMARK  108  A    between atoms: _239  and  _240
REMARK  109  A    between atoms: _244  and  _246
REMARK  110  A    between atoms: _246  and  _247
REMARK  111  A    between atoms: _249  and  _251
REMARK  112  A    between atoms: _251  and  _252
REMARK  113  A    between atoms: _251  and  _254
REMARK  114  A    between atoms: _257  and  _259
REMARK  115  A    between atoms: _259  and  _260
REMARK  116  A    between atoms: _259  and  _262
REMARK  117  A    between atoms: _262  and  _263
REMARK  118  A    between atoms: _266  and  _268
REMARK  119  A    between atoms: _268  and  _269
REMARK  120  A    between atoms: _268  and  _271
REMARK  121  A    between atoms: _271  and  _272
REMARK  122  A    between atoms: _272  and  _273
REMARK  123  A    between atoms: _273  and  _274
REMARK  124  A    between atoms: _274  and  _275
REMARK  125  A    between atoms: _279  and  _281
REMARK  126  A    between atoms: _281  and  _282
REMARK  127  A    between atoms: _281  and  _284
REMARK  128  A    between atoms: _287  and  _289
REMARK  129  A    between atoms: _289  and  _290
REMARK  130  A    between atoms: _289  and  _292
REMARK  131  A    between atoms: _292  and  _293
REMARK  132  A    between atoms: _298  and  _300
REMARK  133  A    between atoms: _300  and  _301
REMARK  134  A    between atoms: _300  and  _303
REMARK  135  A    between atoms: _303  and  _304
REMARK  136  A    between atoms: _307  and  _309
REMARK  137  A    between atoms: _309  and  _310
REMARK  138  A    between atoms: _309  and  _312
REMARK  139  A    between atoms: _312  and  _313
REMARK  140  A    between atoms: _316  and  _318
REMARK  141  A    between atoms: _318  and  _319
REMARK  142  A    between atoms: _318  and  _321
REMARK  143  A    between atoms: _321  and  _322
REMARK  144  A    between atoms: _325  and  _327
REMARK  145  A    between atoms: _327  and  _328
REMARK  146  A    between atoms: _327  and  _330
REMARK  147  A    between atoms: _330  and  _331
REMARK  148  A    between atoms: _334  and  _336
REMARK  149  A    between atoms: _336  and  _337
REMARK  150  A    between atoms: _336  and  _339
REMARK  151  A    between atoms: _339  and  _340
REMARK  152  A    between atoms: _343  and  _345
REMARK  153  A    between atoms: _345  and  _346
REMARK  154  A    between atoms: _345  and  _348
REMARK  155  A    between atoms: _348  and  _349
REMARK  156  A    between atoms: _349  and  _350
REMARK  157  A    between atoms: _350  and  _351
REMARK  158  A    between atoms: _360  and  _362
REMARK  159  A    between atoms: _362  and  _363
REMARK  160  A    between atoms: _362  and  _365
REMARK  161  A    between atoms: _365  and  _366
REMARK  162  A    between atoms: _369  and  _371
REMARK  163  A    between atoms: _371  and  _372
REMARK  164  A    between atoms: _371  and  _374
REMARK  165  A    between atoms: _374  and  _375
REMARK  166  A    between atoms: _375  and  _376
REMARK  167  A    between atoms: _376  and  _377
REMARK  168  A    between atoms: _386  and  _388
REMARK  169  A    between atoms: _388  and  _389
REMARK  170  A    between atoms: _388  and  _391
REMARK  171  A    between atoms: _391  and  _392
REMARK  172  A    between atoms: _398  and  _400
REMARK  173  A    between atoms: _400  and  _401
REMARK  174  A    between atoms: _400  and  _403
REMARK  175  A    between atoms: _403  and  _404
REMARK  176  A    between atoms: _407  and  _409
REMARK  177  A    between atoms: _409  and  _410
REMARK  178  A    between atoms: _409  and  _412
REMARK  179  A    between atoms: _412  and  _413
REMARK  180  A    between atoms: _413  and  _414
REMARK  181  A    between atoms: _414  and  _415
REMARK                            x       y       z     vdW  Elec       q    Type
REMARK                         _______ _______ _______ _____ _____    ______ ____
ROOT
ATOM      1  NE  ARG A   1     -21.191   0.289 -42.223  0.00  0.00    -0.265 N 
ATOM      2  HE  ARG A   1     -21.862   1.083 -42.269  0.00  0.00    +0.259 HD
ATOM      3  CZ  ARG A   1     -20.022   0.436 -42.831  0.00  0.00    +0.342 C 
ATOM      4  NH2 ARG A   1     -19.147  -0.567 -42.868  0.00  0.00    -0.292 N 
ATOM      5 HH21 ARG A   1     -19.378  -1.475 -42.418  0.00  0.00    +0.255 HD
ATOM      6 HH22 ARG A   1     -18.233  -0.442 -43.347  0.00  0.00    +0.255 HD
ATOM      7  NH1 ARG A   1     -19.740   1.593 -43.410  0.00  0.00    -0.292 N 
ATOM      8 HH11 ARG A   1     -20.431   2.370 -43.384  0.00  0.00    +0.255 HD
ATOM      9 HH12 ARG A   1     -18.828   1.725 -43.891  0.00  0.00    +0.255 HD
ENDROOT
BRANCH   1  10
ATOM     10  CD  ARG A   1     -21.604  -0.902 -41.496  0.00  0.00    +0.174 C 
BRANCH  10  11
ATOM     11  CG  ARG A   1     -21.077  -0.839 -40.053  0.00  0.00    +0.045 C 
BRANCH  11  12
ATOM     12  CB  ARG A   1     -21.215   0.574 -39.430  0.00  0.00    +0.029 C 
BRANCH  12  13
ATOM     13  CA  ARG A   1     -22.669   1.066 -39.320  0.00  0.00    +0.133 C 
BRANCH  13  14
ATOM     14  N   ARG A   1     -22.733   2.500 -39.057  0.00  0.00    -0.239 NA
ATOM     15  H   ARG A   1     -21.865   3.018 -38.812  0.00  0.00    +0.142 HD
ENDBRANCH  13  14
BRANCH  13  16
ATOM     16  C   ARG A   1     -23.434   0.268 -38.248  0.00  0.00    +0.224 C 
ATOM     17  O   ARG A   1     -24.091  -0.727 -38.561  0.00  0.00    -0.287 OA
ENDBRANCH  13  16
ENDBRANCH  12  13
ENDBRANCH  11  12
ENDBRANCH  10  11
ENDBRANCH   1  10
TORSDOF 6
REMARK  Name = ../refined-set-2016/3n9r/3n9r_pocket.pdb
REMARK  181 active torsions:
REMARK  status: ('A' for Active; 'I' for Inactive)
REMARK    1  A    between atoms: _1  and  _3
REMARK    2  A    between atoms: _3  and  _4
REMARK    3  A    between atoms: _7  and  _9
REMARK    4  A    between atoms: _9  and  _10
REMARK    5  A    between atoms: _9  and  _12
REMARK    6  A    between atoms: _12  and  _13
REMARK    7  A    between atoms: _18  and  _20
REMARK    8  A    between atoms: _20  and  _21
REMARK    9  A    between atoms: _20  and  _23
REMARK   10  A    between atoms: _23  and  _24
REMARK   11  A    between atoms: _24  and  _25
REMARK   12  A    between atoms: _30  and  _32
REMARK   13  A    between atoms: _32  and  _33
REMARK   14  A    between atoms: _32  and  _35
REMARK   15  A    between atoms: _35  and  _36
REMARK   16  A    between atoms: _38  and  _40
REMARK   17  A    between atoms: _40  and  _41
REMARK   18  A    between atoms: _40  and  _43
REMARK   19  A    between atoms: _43  and  _44
REMARK   20  A    between atoms: _47  and  _49
REMARK   21  A    between atoms: _49  and  _50
REMARK   22  A    between atoms: _49  and  _52
REMARK   23  A    between atoms: _52  and  _53
REMARK   24  A    between atoms: _57  and  ZN_424
REMARK   25  A    between atoms: _58  and  _60
REMARK   26  A    between atoms: _60  and  _61
REMARK   27  A    between atoms: _60  and  _63
REMARK   28  A    between atoms: _63  and  _64
REMARK   29  A    between atoms: _64  and  _65
REMARK   30  A    between atoms: _67  and  _69
REMARK   31  A    between atoms: _69  and  _70
REMARK   32  A    between atoms: _69  and  _72
REMARK   33  A    between atoms: _72  and  _73
REMARK   34  A    between atoms: _76  and  _78
REMARK   35  A    between atoms: _78  and  _79
REMARK   36  A    between atoms: _78  and  _81
REMARK   37  A    between atoms: _81  and  _82
REMARK   38  A    between atoms: _82  and  _83
REMARK   39  A    between atoms: _86  and  _88
REMARK   40  A    between atoms: _88  and  _89
REMARK   41  A    between atoms: _88  and  _91
REMARK   42  A    between atoms: _91  and  _92
REMARK   43  A    between atoms: _92  and  _93
REMARK   44  A    between atoms: _96  and  _98
REMARK   45  A    between atoms: _98  and  _99
REMARK   46  A    between atoms: _98  and  _101
REMARK   47  A    between atoms: _101  and  _102
REMARK   48  A    between atoms: _105  and  _107
REMARK   49  A    between atoms: _107  and  _108
REMARK   50  A    between atoms: _107  and  _110
REMARK   51  A    between atoms: _110  and  _111
REMARK   52  A    between atoms: _114  and  _116
REMARK   53  A    between atoms: _116  and  _117
REMARK   54  A    between atoms: _116  and  _119
REMARK   55  A    between atoms: _119  and  _120
REMARK   56  A    between atoms: _122  and  _124
REMARK   57  A    between atoms: _124  and  _125
REMARK   58  A    between atoms: _124  and  _127
REMARK   59  A    between atoms: _127  and  _128
REMARK   60  A    between atoms: _132  and  ZN_424
REMARK   61  A    between atoms: _133  and  _135
REMARK   62  A    between atoms: _135  and  _136
REMARK   63  A    between atoms: _138  and  _140
REMARK   64  A    between atoms: _140  and  _141
REMARK   65  A    between atoms: _144  and  _146
REMARK   66  A    between atoms: _146  and  _147
REMARK   67  A    between atoms: _146  and  _149
REMARK   68  A    between atoms: _149  and  _150
REMARK   69  A    between atoms: _156  and  _158
REMARK   70  A    between atoms: _158  and  _159
REMARK   71  A    between atoms: _158  and  _161
REMARK   72  A    between atoms: _161  and  _162
REMARK   73  A    between atoms: _162  and  _163
REMARK   74  A    between atoms: _163  and  _164
REMARK   75  A    between atoms: _164  and  _165
REMARK   76  A    between atoms: _169  and  _171
REMARK   77  A    between atoms: _171  and  _172
REMARK   78  A    between atoms: _171  and  _174
REMARK   79  A    between atoms: _177  and  _179
REMARK   80  A    between atoms: _179  and  _180
REMARK   81  A    between atoms: _179  and  _182
REMARK   82  A    between atoms: _182  and  _183
REMARK   83  A    between atoms: _186  and  _188
REMARK   84  A    between atoms: _188  and  _189
REMARK   85  A    between atoms: _188  and  _191
REMARK   86  A    between atoms: _191  and  _192
REMARK   87  A    between atoms: _193  and  ZN_424
REMARK   88  A    between atoms: _197  and  _199
REMARK   89  A    between atoms: _199  and  _200
REMARK   90  A    between atoms: _202  and  _204
REMARK   91  A    between atoms: _204  and  _205
REMARK   92  A    between atoms: _208  and  _210
REMARK   93  A    between atoms: _210  and  _211
REMARK   94  A    between atoms: _210  and  _213
REMARK   95  A    between atoms: _213  and  _214
REMARK   96  A    between atoms: _216  and  _218
REMARK   97  A    between atoms: _218  and  _219
REMARK   98  A    between atoms: _222  and  _224
REMARK   99  A    between atoms: _224  and  _225
REMARK  100  A    between atoms: _224  and  _227
REMARK  101  A    between atoms: _227  and  _228
REMARK  102  A    between atoms: _231  and  _233
REMARK  103  A    between atoms: _233  and  _234
REMARK  104  A    between atoms: _233  and  _236
REMARK  105  A    between atoms: _236  and  _237
REMARK  106  A    between atoms: _237  and  _238
REMARK  107  A    between atoms: _238  and  _239
REMARK  108  A    between atoms: _239  and  _240
REMARK  109  A    between atoms: _244  and  _246
REMARK  110  A    between atoms: _246  and  _247
REMARK  111  A    between atoms: _249  and  _251
REMARK  112  A    between atoms: _251  and  _252
REMARK  113  A    between atoms: _251  and  _254
REMARK  114  A    between atoms: _257  and  _259
REMARK  115  A    between atoms: _259  and  _260
REMARK  116  A    between atoms: _259  and  _262
REMARK  117  A    between atoms: _262  and  _263
REMARK  118  A    between atoms: _266  and  _268
REMARK  119  A    between atoms: _268  and  _269
REMARK  120  A    between atoms: _268  and  _271
REMARK  121  A    between atoms: _271  and  _272
REMARK  122  A    between atoms: _272  and  _273
REMARK  123  A    between atoms: _273  and  _274
REMARK  124  A    between atoms: _274  and  _275
REMARK  125  A    between atoms: _279  and  _281
REMARK  126  A    between atoms: _281  and  _282
REMARK  127  A    between atoms: _281  and  _284
REMARK  128  A    between atoms: _287  and  _289
REMARK  129  A    between atoms: _289  and  _290
REMARK  130  A    between atoms: _289  and  _292
REMARK  131  A    between atoms: _292  and  _293
REMARK  132  A    between atoms: _298  and  _300
REMARK  133  A    between atoms: _300  and  _301
REMARK  134  A    between atoms: _300  and  _303
REMARK  135  A    between atoms: _303  and  _304
REMARK  136  A    between atoms: _307  and  _309
REMARK  137  A    between atoms: _309  and  _310
REMARK  138  A    between atoms: _309  and  _312
REMARK  139  A    between atoms: _312  and  _313
REMARK  140  A    between atoms: _316  and  _318
REMARK  141  A    between atoms: _318  and  _319
REMARK  142  A    between atoms: _318  and  _321
REMARK  143  A    between atoms: _321  and  _322
REMARK  144  A    between atoms: _325  and  _327
REMARK  145  A    between atoms: _327  and  _328
REMARK  146  A    between atoms: _327  and  _330
REMARK  147  A    between atoms: _330  and  _331
REMARK  148  A    between atoms: _334  and  _336
REMARK  149  A    between atoms: _336  and  _337
REMARK  150  A    between atoms: _336  and  _339
REMARK  151  A    between atoms: _339  and  _340
REMARK  152  A    between atoms: _343  and  _345
REMARK  153  A    between atoms: _345  and  _346
REMARK  154  A    between atoms: _345  and  _348
REMARK  155  A    between atoms: _348  and  _349
REMARK  156  A    between atoms: _349  and  _350
REMARK  157  A    between atoms: _350  and  _351
REMARK  158  A    between atoms: _360  and  _362
REMARK  159  A    between atoms: _362  and  _363
REMARK  160  A    between atoms: _362  and  _365
REMARK  161  A    between atoms: _365  and  _366
REMARK  162  A    between atoms: _369  and  _371
REMARK  163  A    between atoms: _371  and  _372
REMARK  164  A    between atoms: _371  and  _374
REMARK  165  A    between atoms: _374  and  _375
REMARK  166  A    between atoms: _375  and  _376
REMARK  167  A    between atoms: _376  and  _377
REMARK  168  A    between atoms: _386  and  _388
REMARK  169  A    between atoms: _388  and  _389
REMARK  170  A    between atoms: _388  and  _391
REMARK  171  A    between atoms: _391  and  _392
REMARK  172  A    between atoms: _398  and  _400
REMARK  173  A    between atoms: _400  and  _401
REMARK  174  A    between atoms: _400  and  _403
REMARK  175  A    between atoms: _403  and  _404
REMARK  176  A    between atoms: _407  and  _409
REMARK  177  A    between atoms: _409  and  _410
REMARK  178  A    between atoms: _409  and  _412
REMARK  179  A    between atoms: _412  and  _413
REMARK  180  A    between atoms: _413  and  _414
REMARK  181  A    between atoms: _414  and  _415
REMARK                            x       y       z     vdW  Elec       q    Type
REMARK                         _______ _______ _______ _____ _____    ______ ____
ROOT
ATOM      1  C   PHE A   1      -4.150   3.799 -44.067  0.00  0.00    +0.239 C 
ATOM      2  O   PHE A   1      -5.005   3.711 -43.185  0.00  0.00    -0.274 OA
ATOM      3  N   ASP A   2      -3.074   3.021 -44.089  0.00  0.00    -0.298 N 
ATOM      4  H   ASP A   2      -2.457   3.021 -44.926  0.00  0.00    +0.150 HD
ENDROOT
BRANCH   1   5
ATOM      5  CA  PHE A   1      -4.259   4.870 -45.162  0.00  0.00    +0.149 C 
BRANCH   5   6
ATOM      6  N   PHE A   1      -3.421   4.611 -46.320  0.00  0.00    -0.238 NA
ATOM      7  H   PHE A   1      -3.336   3.643 -46.691  0.00  0.00    +0.142 HD
ENDBRANCH   5   6
BRANCH   5   8
ATOM      8  CB  PHE A   1      -5.726   5.123 -45.583  0.00  0.00    +0.053 C 
BRANCH   8   9
ATOM      9  CG  PHE A   1      -6.306   4.083 -46.514  0.00  0.00    -0.020 A 
ATOM     10  CD2 PHE A   1      -6.760   2.867 -46.023  0.00  0.00    -0.004 A 
ATOM     11  CE2 PHE A   1      -7.316   1.914 -46.878  0.00  0.00    -0.000 A 
ATOM     12  CZ  PHE A   1      -7.420   2.183 -48.229  0.00  0.00    -0.000 A 
ATOM     13  CE1 PHE A   1      -6.975   3.403 -48.728  0.00  0.00    -0.000 A 
ATOM     14  CD1 PHE A   1      -6.433   4.342 -47.875  0.00  0.00    -0.004 A 
ENDBRANCH   8   9
ENDBRANCH   5   8
ENDBRANCH   1   5
BRANCH   3  15
ATOM     15  CA  ASP A   2      -2.744   2.159 -42.942  0.00  0.00    +0.148 C 
BRANCH  15  16
ATOM     16  C   ASP A   2      -2.123   3.023 -41.847  0.00  0.00    +0.227 C 
ATOM     17  O   ASP A   2      -1.048   3.605 -42.035  0.00  0.00    -0.286 OA
ENDBRANCH  15  16
BRANCH  15  18
ATOM     18  CB  ASP A   2      -1.767   1.068 -43.371  0.00  0.00    +0.142 C 
BRANCH  18  19
ATOM     19  CG  ASP A   2      -1.425   0.084 -42.252  0.00  0.00    +0.367 C 
ATOM     20  OD2 ASP A   2      -1.638   0.388 -41.059  0.00  0.00    -0.246 OA
ATOM     21  OD1 ASP A   2      -0.929  -1.018 -42.583  0.00  0.00    -0.246 OA
ENDBRANCH  18  19
ENDBRANCH  15  18
ENDBRANCH   3  15
TORSDOF 8
REMARK  Name = ../refined-set-2016/3n9r/3n9r_pocket.pdb
REMARK  181 active torsions:
REMARK  status: ('A' for Active; 'I' for Inactive)
REMARK    1  A    between atoms: _1  and  _3
REMARK    2  A    between atoms: _3  and  _4
REMARK    3  A    between atoms: _7  and  _9
REMARK    4  A    between atoms: _9  and  _10
REMARK    5  A    between atoms: _9  and  _12
REMARK    6  A    between atoms: _12  and  _13
REMARK    7  A    between atoms: _18  and  _20
REMARK    8  A    between atoms: _20  and  _21
REMARK    9  A    between atoms: _20  and  _23
REMARK   10  A    between atoms: _23  and  _24
REMARK   11  A    between atoms: _24  and  _25
REMARK   12  A    between atoms: _30  and  _32
REMARK   13  A    between atoms: _32  and  _33
REMARK   14  A    between atoms: _32  and  _35
REMARK   15  A    between atoms: _35  and  _36
REMARK   16  A    between atoms: _38  and  _40
REMARK   17  A    between atoms: _40  and  _41
REMARK   18  A    between atoms: _40  and  _43
REMARK   19  A    between atoms: _43  and  _44
REMARK   20  A    between atoms: _47  and  _49
REMARK   21  A    between atoms: _49  and  _50
REMARK   22  A    between atoms: _49  and  _52
REMARK   23  A    between atoms: _52  and  _53
REMARK   24  A    between atoms: _57  and  ZN_424
REMARK   25  A    between atoms: _58  and  _60
REMARK   26  A    between atoms: _60  and  _61
REMARK   27  A    between atoms: _60  and  _63
REMARK   28  A    between atoms: _63  and  _64
REMARK   29  A    between atoms: _64  and  _65
REMARK   30  A    between atoms: _67  and  _69
REMARK   31  A    between atoms: _69  and  _70
REMARK   32  A    between atoms: _69  and  _72
REMARK   33  A    between atoms: _72  and  _73
REMARK   34  A    between atoms: _76  and  _78
REMARK   35  A    between atoms: _78  and  _79
REMARK   36  A    between atoms: _78  and  _81
REMARK   37  A    between atoms: _81  and  _82
REMARK   38  A    between atoms: _82  and  _83
REMARK   39  A    between atoms: _86  and  _88
REMARK   40  A    between atoms: _88  and  _89
REMARK   41  A    between atoms: _88  and  _91
REMARK   42  A    between atoms: _91  and  _92
REMARK   43  A    between atoms: _92  and  _93
REMARK   44  A    between atoms: _96  and  _98
REMARK   45  A    between atoms: _98  and  _99
REMARK   46  A    between atoms: _98  and  _101
REMARK   47  A    between atoms: _101  and  _102
REMARK   48  A    between atoms: _105  and  _107
REMARK   49  A    between atoms: _107  and  _108
REMARK   50  A    between atoms: _107  and  _110
REMARK   51  A    between atoms: _110  and  _111
REMARK   52  A    between atoms: _114  and  _116
REMARK   53  A    between atoms: _116  and  _117
REMARK   54  A    between atoms: _116  and  _119
REMARK   55  A    between atoms: _119  and  _120
REMARK   56  A    between atoms: _122  and  _124
REMARK   57  A    between atoms: _124  and  _125
REMARK   58  A    between atoms: _124  and  _127
REMARK   59  A    between atoms: _127  and  _128
REMARK   60  A    between atoms: _132  and  ZN_424
REMARK   61  A    between atoms: _133  and  _135
REMARK   62  A    between atoms: _135  and  _136
REMARK   63  A    between atoms: _138  and  _140
REMARK   64  A    between atoms: _140  and  _141
REMARK   65  A    between atoms: _144  and  _146
REMARK   66  A    between atoms: _146  and  _147
REMARK   67  A    between atoms: _146  and  _149
REMARK   68  A    between atoms: _149  and  _150
REMARK   69  A    between atoms: _156  and  _158
REMARK   70  A    between atoms: _158  and  _159
REMARK   71  A    between atoms: _158  and  _161
REMARK   72  A    between atoms: _161  and  _162
REMARK   73  A    between atoms: _162  and  _163
REMARK   74  A    between atoms: _163  and  _164
REMARK   75  A    between atoms: _164  and  _165
REMARK   76  A    between atoms: _169  and  _171
REMARK   77  A    between atoms: _171  and  _172
REMARK   78  A    between atoms: _171  and  _174
REMARK   79  A    between atoms: _177  and  _179
REMARK   80  A    between atoms: _179  and  _180
REMARK   81  A    between atoms: _179  and  _182
REMARK   82  A    between atoms: _182  and  _183
REMARK   83  A    between atoms: _186  and  _188
REMARK   84  A    between atoms: _188  and  _189
REMARK   85  A    between atoms: _188  and  _191
REMARK   86  A    between atoms: _191  and  _192
REMARK   87  A    between atoms: _193  and  ZN_424
REMARK   88  A    between atoms: _197  and  _199
REMARK   89  A    between atoms: _199  and  _200
REMARK   90  A    between atoms: _202  and  _204
REMARK   91  A    between atoms: _204  and  _205
REMARK   92  A    between atoms: _208  and  _210
REMARK   93  A    between atoms: _210  and  _211
REMARK   94  A    between atoms: _210  and  _213
REMARK   95  A    between atoms: _213  and  _214
REMARK   96  A    between atoms: _216  and  _218
REMARK   97  A    between atoms: _218  and  _219
REMARK   98  A    between atoms: _222  and  _224
REMARK   99  A    between atoms: _224  and  _225
REMARK  100  A    between atoms: _224  and  _227
REMARK  101  A    between atoms: _227  and  _228
REMARK  102  A    between atoms: _231  and  _233
REMARK  103  A    between atoms: _233  and  _234
REMARK  104  A    between atoms: _233  and  _236
REMARK  105  A    between atoms: _236  and  _237
REMARK  106  A    between atoms: _237  and  _238
REMARK  107  A    between atoms: _238  and  _239
REMARK  108  A    between atoms: _239  and  _240
REMARK  109  A    between atoms: _244  and  _246
REMARK  110  A    between atoms: _246  and  _247
REMARK  111  A    between atoms: _249  and  _251
REMARK  112  A    between atoms: _251  and  _252
REMARK  113  A    between atoms: _251  and  _254
REMARK  114  A    between atoms: _257  and  _259
REMARK  115  A    between atoms: _259  and  _260
REMARK  116  A    between atoms: _259  and  _262
REMARK  117  A    between atoms: _262  and  _263
REMARK  118  A    between atoms: _266  and  _268
REMARK  119  A    between atoms: _268  and  _269
REMARK  120  A    between atoms: _268  and  _271
REMARK  121  A    between atoms: _271  and  _272
REMARK  122  A    between atoms: _272  and  _273
REMARK  123  A    between atoms: _273  and  _274
REMARK  124  A    between atoms: _274  and  _275
REMARK  125  A    between atoms: _279  and  _281
REMARK  126  A    between atoms: _281  and  _282
REMARK  127  A    between atoms: _281  and  _284
REMARK  128  A    between atoms: _287  and  _289
REMARK  129  A    between atoms: _289  and  _290
REMARK  130  A    between atoms: _289  and  _292
REMARK  131  A    between atoms: _292  and  _293
REMARK  132  A    between atoms: _298  and  _300
REMARK  133  A    between atoms: _300  and  _301
REMARK  134  A    between atoms: _300  and  _303
REMARK  135  A    between atoms: _303  and  _304
REMARK  136  A    between atoms: _307  and  _309
REMARK  137  A    between atoms: _309  and  _310
REMARK  138  A    between atoms: _309  and  _312
REMARK  139  A    between atoms: _312  and  _313
REMARK  140  A    between atoms: _316  and  _318
REMARK  141  A    between atoms: _318  and  _319
REMARK  142  A    between atoms: _318  and  _321
REMARK  143  A    between atoms: _321  and  _322
REMARK  144  A    between atoms: _325  and  _327
REMARK  145  A    between atoms: _327  and  _328
REMARK  146  A    between atoms: _327  and  _330
REMARK  147  A    between atoms: _330  and  _331
REMARK  148  A    between atoms: _334  and  _336
REMARK  149  A    between atoms: _336  and  _337
REMARK  150  A    between atoms: _336  and  _339
REMARK  151  A    between atoms: _339  and  _340
REMARK  152  A    between atoms: _343  and  _345
REMARK  153  A    between atoms: _345  and  _346
REMARK  154  A    between atoms: _345  and  _348
REMARK  155  A    between atoms: _348  and  _349
REMARK  156  A    between atoms: _349  and  _350
REMARK  157  A    between atoms: _350  and  _351
REMARK  158  A    between atoms: _360  and  _362
REMARK  159  A    between atoms: _362  and  _363
REMARK  160  A    between atoms: _362  and  _365
REMARK  161  A    between atoms: _365  and  _366
REMARK  162  A    between atoms: _369  and  _371
REMARK  163  A    between atoms: _371  and  _372
REMARK  164  A    between atoms: _371  and  _374
REMARK  165  A    between atoms: _374  and  _375
REMARK  166  A    between atoms: _375  and  _376
REMARK  167  A    between atoms: _376  and  _377
REMARK  168  A    between atoms: _386  and  _388
REMARK  169  A    between atoms: _388  and  _389
REMARK  170  A    between atoms: _388  and  _391
REMARK  171  A    between atoms: _391  and  _392
REMARK  172  A    between atoms: _398  and  _400
REMARK  173  A    between atoms: _400  and  _401
REMARK  174  A    between atoms: _400  and  _403
REMARK  175  A    between atoms: _403  and  _404
REMARK  176  A    between atoms: _407  and  _409
REMARK  177  A    between atoms: _409  and  _410
REMARK  178  A    between atoms: _409  and  _412
REMARK  179  A    between atoms: _412  and  _413
REMARK  180  A    between atoms: _413  and  _414
REMARK  181  A    between atoms: _414  and  _415
REMARK                            x       y       z     vdW  Elec       q    Type
REMARK                         _______ _______ _______ _____ _____    ______ ____
ROOT
ATOM      1  NE  ARG A   1      -0.607  -2.003 -38.961  0.00  0.00    -0.265 N 
ATOM      2  HE  ARG A   1      -1.249  -1.295 -39.370  0.00  0.00    +0.259 HD
ATOM      3  CZ  ARG A   1      -0.487  -3.166 -39.593  0.00  0.00    +0.342 C 
ATOM      4  NH2 ARG A   1       0.324  -4.100 -39.119  0.00  0.00    -0.292 N 
ATOM      5 HH21 ARG A   1       0.868  -3.924 -38.251  0.00  0.00    +0.255 HD
ATOM      6 HH22 ARG A   1       0.416  -5.009 -39.615  0.00  0.00    +0.255 HD
ATOM      7  NH1 ARG A   1      -1.181  -3.392 -40.704  0.00  0.00    -0.292 N 
ATOM      8 HH11 ARG A   1      -1.817  -2.659 -41.078  0.00  0.00    +0.255 HD
ATOM      9 HH12 ARG A   1      -1.088  -4.302 -41.199  0.00  0.00    +0.255 HD
ENDROOT
BRANCH   1  10
ATOM     10  CD  ARG A   1       0.100  -1.650 -37.733  0.00  0.00    +0.174 C 
BRANCH  10  11
ATOM     11  CG  ARG A   1       0.141  -0.146 -37.565  0.00  0.00    +0.045 C 
BRANCH  11  12
ATOM     12  CB  ARG A   1       0.946   0.487 -38.714  0.00  0.00    +0.029 C 
BRANCH  12  13
ATOM     13  CA  ARG A   1       0.826   2.007 -38.803  0.00  0.00    +0.133 C 
BRANCH  13  14
ATOM     14  N   ARG A   1      -0.522   2.399 -39.222  0.00  0.00    -0.239 NA
ATOM     15  H   ARG A   1      -1.219   1.672 -39.482  0.00  0.00    +0.142 HD
ENDBRANCH  13  14
BRANCH  13  16
ATOM     16  C   ARG A   1       1.908   2.561 -39.734  0.00  0.00    +0.224 C 
ATOM     17  O   ARG A   1       3.030   2.816 -39.308  0.00  0.00    -0.287 OA
ENDBRANCH  13  16
ENDBRANCH  12  13
ENDBRANCH  11  12
ENDBRANCH  10  11
ENDBRANCH   1  10
TORSDOF 6
REMARK  Name = ../refined-set-2016/3n9r/3n9r_pocket.pdb
REMARK  181 active torsions:
REMARK  status: ('A' for Active; 'I' for Inactive)
REMARK    1  A    between atoms: _1  and  _3
REMARK    2  A    between atoms: _3  and  _4
REMARK    3  A    between atoms: _7  and  _9
REMARK    4  A    between atoms: _9  and  _10
REMARK    5  A    between atoms: _9  and  _12
REMARK    6  A    between atoms: _12  and  _13
REMARK    7  A    between atoms: _18  and  _20
REMARK    8  A    between atoms: _20  and  _21
REMARK    9  A    between atoms: _20  and  _23
REMARK   10  A    between atoms: _23  and  _24
REMARK   11  A    between atoms: _24  and  _25
REMARK   12  A    between atoms: _30  and  _32
REMARK   13  A    between atoms: _32  and  _33
REMARK   14  A    between atoms: _32  and  _35
REMARK   15  A    between atoms: _35  and  _36
REMARK   16  A    between atoms: _38  and  _40
REMARK   17  A    between atoms: _40  and  _41
REMARK   18  A    between atoms: _40  and  _43
REMARK   19  A    between atoms: _43  and  _44
REMARK   20  A    between atoms: _47  and  _49
REMARK   21  A    between atoms: _49  and  _50
REMARK   22  A    between atoms: _49  and  _52
REMARK   23  A    between atoms: _52  and  _53
REMARK   24  A    between atoms: _57  and  ZN_424
REMARK   25  A    between atoms: _58  and  _60
REMARK   26  A    between atoms: _60  and  _61
REMARK   27  A    between atoms: _60  and  _63
REMARK   28  A    between atoms: _63  and  _64
REMARK   29  A    between atoms: _64  and  _65
REMARK   30  A    between atoms: _67  and  _69
REMARK   31  A    between atoms: _69  and  _70
REMARK   32  A    between atoms: _69  and  _72
REMARK   33  A    between atoms: _72  and  _73
REMARK   34  A    between atoms: _76  and  _78
REMARK   35  A    between atoms: _78  and  _79
REMARK   36  A    between atoms: _78  and  _81
REMARK   37  A    between atoms: _81  and  _82
REMARK   38  A    between atoms: _82  and  _83
REMARK   39  A    between atoms: _86  and  _88
REMARK   40  A    between atoms: _88  and  _89
REMARK   41  A    between atoms: _88  and  _91
REMARK   42  A    between atoms: _91  and  _92
REMARK   43  A    between atoms: _92  and  _93
REMARK   44  A    between atoms: _96  and  _98
REMARK   45  A    between atoms: _98  and  _99
REMARK   46  A    between atoms: _98  and  _101
REMARK   47  A    between atoms: _101  and  _102
REMARK   48  A    between atoms: _105  and  _107
REMARK   49  A    between atoms: _107  and  _108
REMARK   50  A    between atoms: _107  and  _110
REMARK   51  A    between atoms: _110  and  _111
REMARK   52  A    between atoms: _114  and  _116
REMARK   53  A    between atoms: _116  and  _117
REMARK   54  A    between atoms: _116  and  _119
REMARK   55  A    between atoms: _119  and  _120
REMARK   56  A    between atoms: _122  and  _124
REMARK   57  A    between atoms: _124  and  _125
REMARK   58  A    between atoms: _124  and  _127
REMARK   59  A    between atoms: _127  and  _128
REMARK   60  A    between atoms: _132  and  ZN_424
REMARK   61  A    between atoms: _133  and  _135
REMARK   62  A    between atoms: _135  and  _136
REMARK   63  A    between atoms: _138  and  _140
REMARK   64  A    between atoms: _140  and  _141
REMARK   65  A    between atoms: _144  and  _146
REMARK   66  A    between atoms: _146  and  _147
REMARK   67  A    between atoms: _146  and  _149
REMARK   68  A    between atoms: _149  and  _150
REMARK   69  A    between atoms: _156  and  _158
REMARK   70  A    between atoms: _158  and  _159
REMARK   71  A    between atoms: _158  and  _161
REMARK   72  A    between atoms: _161  and  _162
REMARK   73  A    between atoms: _162  and  _163
REMARK   74  A    between atoms: _163  and  _164
REMARK   75  A    between atoms: _164  and  _165
REMARK   76  A    between atoms: _169  and  _171
REMARK   77  A    between atoms: _171  and  _172
REMARK   78  A    between atoms: _171  and  _174
REMARK   79  A    between atoms: _177  and  _179
REMARK   80  A    between atoms: _179  and  _180
REMARK   81  A    between atoms: _179  and  _182
REMARK   82  A    between atoms: _182  and  _183
REMARK   83  A    between atoms: _186  and  _188
REMARK   84  A    between atoms: _188  and  _189
REMARK   85  A    between atoms: _188  and  _191
REMARK   86  A    between atoms: _191  and  _192
REMARK   87  A    between atoms: _193  and  ZN_424
REMARK   88  A    between atoms: _197  and  _199
REMARK   89  A    between atoms: _199  and  _200
REMARK   90  A    between atoms: _202  and  _204
REMARK   91  A    between atoms: _204  and  _205
REMARK   92  A    between atoms: _208  and  _210
REMARK   93  A    between atoms: _210  and  _211
REMARK   94  A    between atoms: _210  and  _213
REMARK   95  A    between atoms: _213  and  _214
REMARK   96  A    between atoms: _216  and  _218
REMARK   97  A    between atoms: _218  and  _219
REMARK   98  A    between atoms: _222  and  _224
REMARK   99  A    between atoms: _224  and  _225
REMARK  100  A    between atoms: _224  and  _227
REMARK  101  A    between atoms: _227  and  _228
REMARK  102  A    between atoms: _231  and  _233
REMARK  103  A    between atoms: _233  and  _234
REMARK  104  A    between atoms: _233  and  _236
REMARK  105  A    between atoms: _236  and  _237
REMARK  106  A    between atoms: _237  and  _238
REMARK  107  A    between atoms: _238  and  _239
REMARK  108  A    between atoms: _239  and  _240
REMARK  109  A    between atoms: _244  and  _246
REMARK  110  A    between atoms: _246  and  _247
REMARK  111  A    between atoms: _249  and  _251
REMARK  112  A    between atoms: _251  and  _252
REMARK  113  A    between atoms: _251  and  _254
REMARK  114  A    between atoms: _257  and  _259
REMARK  115  A    between atoms: _259  and  _260
REMARK  116  A    between atoms: _259  and  _262
REMARK  117  A    between atoms: _262  and  _263
REMARK  118  A    between atoms: _266  and  _268
REMARK  119  A    between atoms: _268  and  _269
REMARK  120  A    between atoms: _268  and  _271
REMARK  121  A    between atoms: _271  and  _272
REMARK  122  A    between atoms: _272  and  _273
REMARK  123  A    between atoms: _273  and  _274
REMARK  124  A    between atoms: _274  and  _275
REMARK  125  A    between atoms: _279  and  _281
REMARK  126  A    between atoms: _281  and  _282
REMARK  127  A    between atoms: _281  and  _284
REMARK  128  A    between atoms: _287  and  _289
REMARK  129  A    between atoms: _289  and  _290
REMARK  130  A    between atoms: _289  and  _292
REMARK  131  A    between atoms: _292  and  _293
REMARK  132  A    between atoms: _298  and  _300
REMARK  133  A    between atoms: _300  and  _301
REMARK  134  A    between atoms: _300  and  _303
REMARK  135  A    between atoms: _303  and  _304
REMARK  136  A    between atoms: _307  and  _309
REMARK  137  A    between atoms: _309  and  _310
REMARK  138  A    between atoms: _309  and  _312
REMARK  139  A    between atoms: _312  and  _313
REMARK  140  A    between atoms: _316  and  _318
REMARK  141  A    between atoms: _318  and  _319
REMARK  142  A    between atoms: _318  and  _321
REMARK  143  A    between atoms: _321  and  _322
REMARK  144  A    between atoms: _325  and  _327
REMARK  145  A    between atoms: _327  and  _328
REMARK  146  A    between atoms: _327  and  _330
REMARK  147  A    between atoms: _330  and  _331
REMARK  148  A    between atoms: _334  and  _336
REMARK  149  A    between atoms: _336  and  _337
REMARK  150  A    between atoms: _336  and  _339
REMARK  151  A    between atoms: _339  and  _340
REMARK  152  A    between atoms: _343  and  _345
REMARK  153  A    between atoms: _345  and  _346
REMARK  154  A    between atoms: _345  and  _348
REMARK  155  A    between atoms: _348  and  _349
REMARK  156  A    between atoms: _349  and  _350
REMARK  157  A    between atoms: _350  and  _351
REMARK  158  A    between atoms: _360  and  _362
REMARK  159  A    between atoms: _362  and  _363
REMARK  160  A    between atoms: _362  and  _365
REMARK  161  A    between atoms: _365  and  _366
REMARK  162  A    between atoms: _369  and  _371
REMARK  163  A    between atoms: _371  and  _372
REMARK  164  A    between atoms: _371  and  _374
REMARK  165  A    between atoms: _374  and  _375
REMARK  166  A    between atoms: _375  and  _376
REMARK  167  A    between atoms: _376  and  _377
REMARK  168  A    between atoms: _386  and  _388
REMARK  169  A    between atoms: _388  and  _389
REMARK  170  A    between atoms: _388  and  _391
REMARK  171  A    between atoms: _391  and  _392
REMARK  172  A    between atoms: _398  and  _400
REMARK  173  A    between atoms: _400  and  _401
REMARK  174  A    between atoms: _400  and  _403
REMARK  175  A    between atoms: _403  and  _404
REMARK  176  A    between atoms: _407  and  _409
REMARK  177  A    between atoms: _409  and  _410
REMARK  178  A    between atoms: _409  and  _412
REMARK  179  A    between atoms: _412  and  _413
REMARK  180  A    between atoms: _413  and  _414
REMARK  181  A    between atoms: _414  and  _415
REMARK                            x       y       z     vdW  Elec       q    Type
REMARK                         _______ _______ _______ _____ _____    ______ ____
ROOT
ATOM      1  O   HOH     1     -19.340  -3.360 -42.430  0.00  0.00    +0.000 OA
ENDROOT
TORSDOF 0
REMARK  Name = ../refined-set-2016/3n9r/3n9r_pocket.pdb
REMARK  181 active torsions:
REMARK  status: ('A' for Active; 'I' for Inactive)
REMARK    1  A    between atoms: _1  and  _3
REMARK    2  A    between atoms: _3  and  _4
REMARK    3  A    between atoms: _7  and  _9
REMARK    4  A    between atoms: _9  and  _10
REMARK    5  A    between atoms: _9  and  _12
REMARK    6  A    between atoms: _12  and  _13
REMARK    7  A    between atoms: _18  and  _20
REMARK    8  A    between atoms: _20  and  _21
REMARK    9  A    between atoms: _20  and  _23
REMARK   10  A    between atoms: _23  and  _24
REMARK   11  A    between atoms: _24  and  _25
REMARK   12  A    between atoms: _30  and  _32
REMARK   13  A    between atoms: _32  and  _33
REMARK   14  A    between atoms: _32  and  _35
REMARK   15  A    between atoms: _35  and  _36
REMARK   16  A    between atoms: _38  and  _40
REMARK   17  A    between atoms: _40  and  _41
REMARK   18  A    between atoms: _40  and  _43
REMARK   19  A    between atoms: _43  and  _44
REMARK   20  A    between atoms: _47  and  _49
REMARK   21  A    between atoms: _49  and  _50
REMARK   22  A    between atoms: _49  and  _52
REMARK   23  A    between atoms: _52  and  _53
REMARK   24  A    between atoms: _57  and  ZN_424
REMARK   25  A    between atoms: _58  and  _60
REMARK   26  A    between atoms: _60  and  _61
REMARK   27  A    between atoms: _60  and  _63
REMARK   28  A    between atoms: _63  and  _64
REMARK   29  A    between atoms: _64  and  _65
REMARK   30  A    between atoms: _67  and  _69
REMARK   31  A    between atoms: _69  and  _70
REMARK   32  A    between atoms: _69  and  _72
REMARK   33  A    between atoms: _72  and  _73
REMARK   34  A    between atoms: _76  and  _78
REMARK   35  A    between atoms: _78  and  _79
REMARK   36  A    between atoms: _78  and  _81
REMARK   37  A    between atoms: _81  and  _82
REMARK   38  A    between atoms: _82  and  _83
REMARK   39  A    between atoms: _86  and  _88
REMARK   40  A    between atoms: _88  and  _89
REMARK   41  A    between atoms: _88  and  _91
REMARK   42  A    between atoms: _91  and  _92
REMARK   43  A    between atoms: _92  and  _93
REMARK   44  A    between atoms: _96  and  _98
REMARK   45  A    between atoms: _98  and  _99
REMARK   46  A    between atoms: _98  and  _101
REMARK   47  A    between atoms: _101  and  _102
REMARK   48  A    between atoms: _105  and  _107
REMARK   49  A    between atoms: _107  and  _108
REMARK   50  A    between atoms: _107  and  _110
REMARK   51  A    between atoms: _110  and  _111
REMARK   52  A    between atoms: _114  and  _116
REMARK   53  A    between atoms: _116  and  _117
REMARK   54  A    between atoms: _116  and  _119
REMARK   55  A    between atoms: _119  and  _120
REMARK   56  A    between atoms: _122  and  _124
REMARK   57  A    between atoms: _124  and  _125
REMARK   58  A    between atoms: _124  and  _127
REMARK   59  A    between atoms: _127  and  _128
REMARK   60  A    between atoms: _132  and  ZN_424
REMARK   61  A    between atoms: _133  and  _135
REMARK   62  A    between atoms: _135  and  _136
REMARK   63  A    between atoms: _138  and  _140
REMARK   64  A    between atoms: _140  and  _141
REMARK   65  A    between atoms: _144  and  _146
REMARK   66  A    between atoms: _146  and  _147
REMARK   67  A    between atoms: _146  and  _149
REMARK   68  A    between atoms: _149  and  _150
REMARK   69  A    between atoms: _156  and  _158
REMARK   70  A    between atoms: _158  and  _159
REMARK   71  A    between atoms: _158  and  _161
REMARK   72  A    between atoms: _161  and  _162
REMARK   73  A    between atoms: _162  and  _163
REMARK   74  A    between atoms: _163  and  _164
REMARK   75  A    between atoms: _164  and  _165
REMARK   76  A    between atoms: _169  and  _171
REMARK   77  A    between atoms: _171  and  _172
REMARK   78  A    between atoms: _171  and  _174
REMARK   79  A    between atoms: _177  and  _179
REMARK   80  A    between atoms: _179  and  _180
REMARK   81  A    between atoms: _179  and  _182
REMARK   82  A    between atoms: _182  and  _183
REMARK   83  A    between atoms: _186  and  _188
REMARK   84  A    between atoms: _188  and  _189
REMARK   85  A    between atoms: _188  and  _191
REMARK   86  A    between atoms: _191  and  _192
REMARK   87  A    between atoms: _193  and  ZN_424
REMARK   88  A    between atoms: _197  and  _199
REMARK   89  A    between atoms: _199  and  _200
REMARK   90  A    between atoms: _202  and  _204
REMARK   91  A    between atoms: _204  and  _205
REMARK   92  A    between atoms: _208  and  _210
REMARK   93  A    between atoms: _210  and  _211
REMARK   94  A    between atoms: _210  and  _213
REMARK   95  A    between atoms: _213  and  _214
REMARK   96  A    between atoms: _216  and  _218
REMARK   97  A    between atoms: _218  and  _219
REMARK   98  A    between atoms: _222  and  _224
REMARK   99  A    between atoms: _224  and  _225
REMARK  100  A    between atoms: _224  and  _227
REMARK  101  A    between atoms: _227  and  _228
REMARK  102  A    between atoms: _231  and  _233
REMARK  103  A    between atoms: _233  and  _234
REMARK  104  A    between atoms: _233  and  _236
REMARK  105  A    between atoms: _236  and  _237
REMARK  106  A    between atoms: _237  and  _238
REMARK  107  A    between atoms: _238  and  _239
REMARK  108  A    between atoms: _239  and  _240
REMARK  109  A    between atoms: _244  and  _246
REMARK  110  A    between atoms: _246  and  _247
REMARK  111  A    between atoms: _249  and  _251
REMARK  112  A    between atoms: _251  and  _252
REMARK  113  A    between atoms: _251  and  _254
REMARK  114  A    between atoms: _257  and  _259
REMARK  115  A    between atoms: _259  and  _260
REMARK  116  A    between atoms: _259  and  _262
REMARK  117  A    between atoms: _262  and  _263
REMARK  118  A    between atoms: _266  and  _268
REMARK  119  A    between atoms: _268  and  _269
REMARK  120  A    between atoms: _268  and  _271
REMARK  121  A    between atoms: _271  and  _272
REMARK  122  A    between atoms: _272  and  _273
REMARK  123  A    between atoms: _273  and  _274
REMARK  124  A    between atoms: _274  and  _275
REMARK  125  A    between atoms: _279  and  _281
REMARK  126  A    between atoms: _281  and  _282
REMARK  127  A    between atoms: _281  and  _284
REMARK  128  A    between atoms: _287  and  _289
REMARK  129  A    between atoms: _289  and  _290
REMARK  130  A    between atoms: _289  and  _292
REMARK  131  A    between atoms: _292  and  _293
REMARK  132  A    between atoms: _298  and  _300
REMARK  133  A    between atoms: _300  and  _301
REMARK  134  A    between atoms: _300  and  _303
REMARK  135  A    between atoms: _303  and  _304
REMARK  136  A    between atoms: _307  and  _309
REMARK  137  A    between atoms: _309  and  _310
REMARK  138  A    between atoms: _309  and  _312
REMARK  139  A    between atoms: _312  and  _313
REMARK  140  A    between atoms: _316  and  _318
REMARK  141  A    between atoms: _318  and  _319
REMARK  142  A    between atoms: _318  and  _321
REMARK  143  A    between atoms: _321  and  _322
REMARK  144  A    between atoms: _325  and  _327
REMARK  145  A    between atoms: _327  and  _328
REMARK  146  A    between atoms: _327  and  _330
REMARK  147  A    between atoms: _330  and  _331
REMARK  148  A    between atoms: _334  and  _336
REMARK  149  A    between atoms: _336  and  _337
REMARK  150  A    between atoms: _336  and  _339
REMARK  151  A    between atoms: _339  and  _340
REMARK  152  A    between atoms: _343  and  _345
REMARK  153  A    between atoms: _345  and  _346
REMARK  154  A    between atoms: _345  and  _348
REMARK  155  A    between atoms: _348  and  _349
REMARK  156  A    between atoms: _349  and  _350
REMARK  157  A    between atoms: _350  and  _351
REMARK  158  A    between atoms: _360  and  _362
REMARK  159  A    between atoms: _362  and  _363
REMARK  160  A    between atoms: _362  and  _365
REMARK  161  A    between atoms: _365  and  _366
REMARK  162  A    between atoms: _369  and  _371
REMARK  163  A    between atoms: _371  and  _372
REMARK  164  A    between atoms: _371  and  _374
REMARK  165  A    between atoms: _374  and  _375
REMARK  166  A    between atoms: _375  and  _376
REMARK  167  A    between atoms: _376  and  _377
REMARK  168  A    between atoms: _386  and  _388
REMARK  169  A    between atoms: _388  and  _389
REMARK  170  A    between atoms: _388  and  _391
REMARK  171  A    between atoms: _391  and  _392
REMARK  172  A    between atoms: _398  and  _400
REMARK  173  A    between atoms: _400  and  _401
REMARK  174  A    between atoms: _400  and  _403
REMARK  175  A    between atoms: _403  and  _404
REMARK  176  A    between atoms: _407  and  _409
REMARK  177  A    between atoms: _409  and  _410
REMARK  178  A    between atoms: _409  and  _412
REMARK  179  A    between atoms: _412  and  _413
REMARK  180  A    between atoms: _413  and  _414
REMARK  181  A    between atoms: _414  and  _415
REMARK                            x       y       z     vdW  Elec       q    Type
REMARK                         _______ _______ _______ _____ _____    ______ ____
ROOT
ATOM      1  O   HOH     1      -8.883  -4.725 -51.984  0.00  0.00    +0.000 OA
ENDROOT
TORSDOF 0
REMARK  Name = ../refined-set-2016/3n9r/3n9r_pocket.pdb
REMARK  181 active torsions:
REMARK  status: ('A' for Active; 'I' for Inactive)
REMARK    1  A    between atoms: _1  and  _3
REMARK    2  A    between atoms: _3  and  _4
REMARK    3  A    between atoms: _7  and  _9
REMARK    4  A    between atoms: _9  and  _10
REMARK    5  A    between atoms: _9  and  _12
REMARK    6  A    between atoms: _12  and  _13
REMARK    7  A    between atoms: _18  and  _20
REMARK    8  A    between atoms: _20  and  _21
REMARK    9  A    between atoms: _20  and  _23
REMARK   10  A    between atoms: _23  and  _24
REMARK   11  A    between atoms: _24  and  _25
REMARK   12  A    between atoms: _30  and  _32
REMARK   13  A    between atoms: _32  and  _33
REMARK   14  A    between atoms: _32  and  _35
REMARK   15  A    between atoms: _35  and  _36
REMARK   16  A    between atoms: _38  and  _40
REMARK   17  A    between atoms: _40  and  _41
REMARK   18  A    between atoms: _40  and  _43
REMARK   19  A    between atoms: _43  and  _44
REMARK   20  A    between atoms: _47  and  _49
REMARK   21  A    between atoms: _49  and  _50
REMARK   22  A    between atoms: _49  and  _52
REMARK   23  A    between atoms: _52  and  _53
REMARK   24  A    between atoms: _57  and  ZN_424
REMARK   25  A    between atoms: _58  and  _60
REMARK   26  A    between atoms: _60  and  _61
REMARK   27  A    between atoms: _60  and  _63
REMARK   28  A    between atoms: _63  and  _64
REMARK   29  A    between atoms: _64  and  _65
REMARK   30  A    between atoms: _67  and  _69
REMARK   31  A    between atoms: _69  and  _70
REMARK   32  A    between atoms: _69  and  _72
REMARK   33  A    between atoms: _72  and  _73
REMARK   34  A    between atoms: _76  and  _78
REMARK   35  A    between atoms: _78  and  _79
REMARK   36  A    between atoms: _78  and  _81
REMARK   37  A    between atoms: _81  and  _82
REMARK   38  A    between atoms: _82  and  _83
REMARK   39  A    between atoms: _86  and  _88
REMARK   40  A    between atoms: _88  and  _89
REMARK   41  A    between atoms: _88  and  _91
REMARK   42  A    between atoms: _91  and  _92
REMARK   43  A    between atoms: _92  and  _93
REMARK   44  A    between atoms: _96  and  _98
REMARK   45  A    between atoms: _98  and  _99
REMARK   46  A    between atoms: _98  and  _101
REMARK   47  A    between atoms: _101  and  _102
REMARK   48  A    between atoms: _105  and  _107
REMARK   49  A    between atoms: _107  and  _108
REMARK   50  A    between atoms: _107  and  _110
REMARK   51  A    between atoms: _110  and  _111
REMARK   52  A    between atoms: _114  and  _116
REMARK   53  A    between atoms: _116  and  _117
REMARK   54  A    between atoms: _116  and  _119
REMARK   55  A    between atoms: _119  and  _120
REMARK   56  A    between atoms: _122  and  _124
REMARK   57  A    between atoms: _124  and  _125
REMARK   58  A    between atoms: _124  and  _127
REMARK   59  A    between atoms: _127  and  _128
REMARK   60  A    between atoms: _132  and  ZN_424
REMARK   61  A    between atoms: _133  and  _135
REMARK   62  A    between atoms: _135  and  _136
REMARK   63  A    between atoms: _138  and  _140
REMARK   64  A    between atoms: _140  and  _141
REMARK   65  A    between atoms: _144  and  _146
REMARK   66  A    between atoms: _146  and  _147
REMARK   67  A    between atoms: _146  and  _149
REMARK   68  A    between atoms: _149  and  _150
REMARK   69  A    between atoms: _156  and  _158
REMARK   70  A    between atoms: _158  and  _159
REMARK   71  A    between atoms: _158  and  _161
REMARK   72  A    between atoms: _161  and  _162
REMARK   73  A    between atoms: _162  and  _163
REMARK   74  A    between atoms: _163  and  _164
REMARK   75  A    between atoms: _164  and  _165
REMARK   76  A    between atoms: _169  and  _171
REMARK   77  A    between atoms: _171  and  _172
REMARK   78  A    between atoms: _171  and  _174
REMARK   79  A    between atoms: _177  and  _179
REMARK   80  A    between atoms: _179  and  _180
REMARK   81  A    between atoms: _179  and  _182
REMARK   82  A    between atoms: _182  and  _183
REMARK   83  A    between atoms: _186  and  _188
REMARK   84  A    between atoms: _188  and  _189
REMARK   85  A    between atoms: _188  and  _191
REMARK   86  A    between atoms: _191  and  _192
REMARK   87  A    between atoms: _193  and  ZN_424
REMARK   88  A    between atoms: _197  and  _199
REMARK   89  A    between atoms: _199  and  _200
REMARK   90  A    between atoms: _202  and  _204
REMARK   91  A    between atoms: _204  and  _205
REMARK   92  A    between atoms: _208  and  _210
REMARK   93  A    between atoms: _210  and  _211
REMARK   94  A    between atoms: _210  and  _213
REMARK   95  A    between atoms: _213  and  _214
REMARK   96  A    between atoms: _216  and  _218
REMARK   97  A    between atoms: _218  and  _219
REMARK   98  A    between atoms: _222  and  _224
REMARK   99  A    between atoms: _224  and  _225
REMARK  100  A    between atoms: _224  and  _227
REMARK  101  A    between atoms: _227  and  _228
REMARK  102  A    between atoms: _231  and  _233
REMARK  103  A    between atoms: _233  and  _234
REMARK  104  A    between atoms: _233  and  _236
REMARK  105  A    between atoms: _236  and  _237
REMARK  106  A    between atoms: _237  and  _238
REMARK  107  A    between atoms: _238  and  _239
REMARK  108  A    between atoms: _239  and  _240
REMARK  109  A    between atoms: _244  and  _246
REMARK  110  A    between atoms: _246  and  _247
REMARK  111  A    between atoms: _249  and  _251
REMARK  112  A    between atoms: _251  and  _252
REMARK  113  A    between atoms: _251  and  _254
REMARK  114  A    between atoms: _257  and  _259
REMARK  115  A    between atoms: _259  and  _260
REMARK  116  A    between atoms: _259  and  _262
REMARK  117  A    between atoms: _262  and  _263
REMARK  118  A    between atoms: _266  and  _268
REMARK  119  A    between atoms: _268  and  _269
REMARK  120  A    between atoms: _268  and  _271
REMARK  121  A    between atoms: _271  and  _272
REMARK  122  A    between atoms: _272  and  _273
REMARK  123  A    between atoms: _273  and  _274
REMARK  124  A    between atoms: _274  and  _275
REMARK  125  A    between atoms: _279  and  _281
REMARK  126  A    between atoms: _281  and  _282
REMARK  127  A    between atoms: _281  and  _284
REMARK  128  A    between atoms: _287  and  _289
REMARK  129  A    between atoms: _289  and  _290
REMARK  130  A    between atoms: _289  and  _292
REMARK  131  A    between atoms: _292  and  _293
REMARK  132  A    between atoms: _298  and  _300
REMARK  133  A    between atoms: _300  and  _301
REMARK  134  A    between atoms: _300  and  _303
REMARK  135  A    between atoms: _303  and  _304
REMARK  136  A    between atoms: _307  and  _309
REMARK  137  A    between atoms: _309  and  _310
REMARK  138  A    between atoms: _309  and  _312
REMARK  139  A    between atoms: _312  and  _313
REMARK  140  A    between atoms: _316  and  _318
REMARK  141  A    between atoms: _318  and  _319
REMARK  142  A    between atoms: _318  and  _321
REMARK  143  A    between atoms: _321  and  _322
REMARK  144  A    between atoms: _325  and  _327
REMARK  145  A    between atoms: _327  and  _328
REMARK  146  A    between atoms: _327  and  _330
REMARK  147  A    between atoms: _330  and  _331
REMARK  148  A    between atoms: _334  and  _336
REMARK  149  A    between atoms: _336  and  _337
REMARK  150  A    between atoms: _336  and  _339
REMARK  151  A    between atoms: _339  and  _340
REMARK  152  A    between atoms: _343  and  _345
REMARK  153  A    between atoms: _345  and  _346
REMARK  154  A    between atoms: _345  and  _348
REMARK  155  A    between atoms: _348  and  _349
REMARK  156  A    between atoms: _349  and  _350
REMARK  157  A    between atoms: _350  and  _351
REMARK  158  A    between atoms: _360  and  _362
REMARK  159  A    between atoms: _362  and  _363
REMARK  160  A    between atoms: _362  and  _365
REMARK  161  A    between atoms: _365  and  _366
REMARK  162  A    between atoms: _369  and  _371
REMARK  163  A    between atoms: _371  and  _372
REMARK  164  A    between atoms: _371  and  _374
REMARK  165  A    between atoms: _374  and  _375
REMARK  166  A    between atoms: _375  and  _376
REMARK  167  A    between atoms: _376  and  _377
REMARK  168  A    between atoms: _386  and  _388
REMARK  169  A    between atoms: _388  and  _389
REMARK  170  A    between atoms: _388  and  _391
REMARK  171  A    between atoms: _391  and  _392
REMARK  172  A    between atoms: _398  and  _400
REMARK  173  A    between atoms: _400  and  _401
REMARK  174  A    between atoms: _400  and  _403
REMARK  175  A    between atoms: _403  and  _404
REMARK  176  A    between atoms: _407  and  _409
REMARK  177  A    between atoms: _409  and  _410
REMARK  178  A    between atoms: _409  and  _412
REMARK  179  A    between atoms: _412  and  _413
REMARK  180  A    between atoms: _413  and  _414
REMARK  181  A    between atoms: _414  and  _415
REMARK                            x       y       z     vdW  Elec       q    Type
REMARK                         _______ _______ _______ _____ _____    ______ ____
ROOT
ATOM      1  O   HOH     1     -16.675 -14.193 -44.696  0.00  0.00    +0.000 OA
ENDROOT
TORSDOF 0
REMARK  Name = ../refined-set-2016/3n9r/3n9r_pocket.pdb
REMARK  181 active torsions:
REMARK  status: ('A' for Active; 'I' for Inactive)
REMARK    1  A    between atoms: _1  and  _3
REMARK    2  A    between atoms: _3  and  _4
REMARK    3  A    between atoms: _7  and  _9
REMARK    4  A    between atoms: _9  and  _10
REMARK    5  A    between atoms: _9  and  _12
REMARK    6  A    between atoms: _12  and  _13
REMARK    7  A    between atoms: _18  and  _20
REMARK    8  A    between atoms: _20  and  _21
REMARK    9  A    between atoms: _20  and  _23
REMARK   10  A    between atoms: _23  and  _24
REMARK   11  A    between atoms: _24  and  _25
REMARK   12  A    between atoms: _30  and  _32
REMARK   13  A    between atoms: _32  and  _33
REMARK   14  A    between atoms: _32  and  _35
REMARK   15  A    between atoms: _35  and  _36
REMARK   16  A    between atoms: _38  and  _40
REMARK   17  A    between atoms: _40  and  _41
REMARK   18  A    between atoms: _40  and  _43
REMARK   19  A    between atoms: _43  and  _44
REMARK   20  A    between atoms: _47  and  _49
REMARK   21  A    between atoms: _49  and  _50
REMARK   22  A    between atoms: _49  and  _52
REMARK   23  A    between atoms: _52  and  _53
REMARK   24  A    between atoms: _57  and  ZN_424
REMARK   25  A    between atoms: _58  and  _60
REMARK   26  A    between atoms: _60  and  _61
REMARK   27  A    between atoms: _60  and  _63
REMARK   28  A    between atoms: _63  and  _64
REMARK   29  A    between atoms: _64  and  _65
REMARK   30  A    between atoms: _67  and  _69
REMARK   31  A    between atoms: _69  and  _70
REMARK   32  A    between atoms: _69  and  _72
REMARK   33  A    between atoms: _72  and  _73
REMARK   34  A    between atoms: _76  and  _78
REMARK   35  A    between atoms: _78  and  _79
REMARK   36  A    between atoms: _78  and  _81
REMARK   37  A    between atoms: _81  and  _82
REMARK   38  A    between atoms: _82  and  _83
REMARK   39  A    between atoms: _86  and  _88
REMARK   40  A    between atoms: _88  and  _89
REMARK   41  A    between atoms: _88  and  _91
REMARK   42  A    between atoms: _91  and  _92
REMARK   43  A    between atoms: _92  and  _93
REMARK   44  A    between atoms: _96  and  _98
REMARK   45  A    between atoms: _98  and  _99
REMARK   46  A    between atoms: _98  and  _101
REMARK   47  A    between atoms: _101  and  _102
REMARK   48  A    between atoms: _105  and  _107
REMARK   49  A    between atoms: _107  and  _108
REMARK   50  A    between atoms: _107  and  _110
REMARK   51  A    between atoms: _110  and  _111
REMARK   52  A    between atoms: _114  and  _116
REMARK   53  A    between atoms: _116  and  _117
REMARK   54  A    between atoms: _116  and  _119
REMARK   55  A    between atoms: _119  and  _120
REMARK   56  A    between atoms: _122  and  _124
REMARK   57  A    between atoms: _124  and  _125
REMARK   58  A    between atoms: _124  and  _127
REMARK   59  A    between atoms: _127  and  _128
REMARK   60  A    between atoms: _132  and  ZN_424
REMARK   61  A    between atoms: _133  and  _135
REMARK   62  A    between atoms: _135  and  _136
REMARK   63  A    between atoms: _138  and  _140
REMARK   64  A    between atoms: _140  and  _141
REMARK   65  A    between atoms: _144  and  _146
REMARK   66  A    between atoms: _146  and  _147
REMARK   67  A    between atoms: _146  and  _149
REMARK   68  A    between atoms: _149  and  _150
REMARK   69  A    between atoms: _156  and  _158
REMARK   70  A    between atoms: _158  and  _159
REMARK   71  A    between atoms: _158  and  _161
REMARK   72  A    between atoms: _161  and  _162
REMARK   73  A    between atoms: _162  and  _163
REMARK   74  A    between atoms: _163  and  _164
REMARK   75  A    between atoms: _164  and  _165
REMARK   76  A    between atoms: _169  and  _171
REMARK   77  A    between atoms: _171  and  _172
REMARK   78  A    between atoms: _171  and  _174
REMARK   79  A    between atoms: _177  and  _179
REMARK   80  A    between atoms: _179  and  _180
REMARK   81  A    between atoms: _179  and  _182
REMARK   82  A    between atoms: _182  and  _183
REMARK   83  A    between atoms: _186  and  _188
REMARK   84  A    between atoms: _188  and  _189
REMARK   85  A    between atoms: _188  and  _191
REMARK   86  A    between atoms: _191  and  _192
REMARK   87  A    between atoms: _193  and  ZN_424
REMARK   88  A    between atoms: _197  and  _199
REMARK   89  A    between atoms: _199  and  _200
REMARK   90  A    between atoms: _202  and  _204
REMARK   91  A    between atoms: _204  and  _205
REMARK   92  A    between atoms: _208  and  _210
REMARK   93  A    between atoms: _210  and  _211
REMARK   94  A    between atoms: _210  and  _213
REMARK   95  A    between atoms: _213  and  _214
REMARK   96  A    between atoms: _216  and  _218
REMARK   97  A    between atoms: _218  and  _219
REMARK   98  A    between atoms: _222  and  _224
REMARK   99  A    between atoms: _224  and  _225
REMARK  100  A    between atoms: _224  and  _227
REMARK  101  A    between atoms: _227  and  _228
REMARK  102  A    between atoms: _231  and  _233
REMARK  103  A    between atoms: _233  and  _234
REMARK  104  A    between atoms: _233  and  _236
REMARK  105  A    between atoms: _236  and  _237
REMARK  106  A    between atoms: _237  and  _238
REMARK  107  A    between atoms: _238  and  _239
REMARK  108  A    between atoms: _239  and  _240
REMARK  109  A    between atoms: _244  and  _246
REMARK  110  A    between atoms: _246  and  _247
REMARK  111  A    between atoms: _249  and  _251
REMARK  112  A    between atoms: _251  and  _252
REMARK  113  A    between atoms: _251  and  _254
REMARK  114  A    between atoms: _257  and  _259
REMARK  115  A    between atoms: _259  and  _260
REMARK  116  A    between atoms: _259  and  _262
REMARK  117  A    between atoms: _262  and  _263
REMARK  118  A    between atoms: _266  and  _268
REMARK  119  A    between atoms: _268  and  _269
REMARK  120  A    between atoms: _268  and  _271
REMARK  121  A    between atoms: _271  and  _272
REMARK  122  A    between atoms: _272  and  _273
REMARK  123  A    between atoms: _273  and  _274
REMARK  124  A    between atoms: _274  and  _275
REMARK  125  A    between atoms: _279  and  _281
REMARK  126  A    between atoms: _281  and  _282
REMARK  127  A    between atoms: _281  and  _284
REMARK  128  A    between atoms: _287  and  _289
REMARK  129  A    between atoms: _289  and  _290
REMARK  130  A    between atoms: _289  and  _292
REMARK  131  A    between atoms: _292  and  _293
REMARK  132  A    between atoms: _298  and  _300
REMARK  133  A    between atoms: _300  and  _301
REMARK  134  A    between atoms: _300  and  _303
REMARK  135  A    between atoms: _303  and  _304
REMARK  136  A    between atoms: _307  and  _309
REMARK  137  A    between atoms: _309  and  _310
REMARK  138  A    between atoms: _309  and  _312
REMARK  139  A    between atoms: _312  and  _313
REMARK  140  A    between atoms: _316  and  _318
REMARK  141  A    between atoms: _318  and  _319
REMARK  142  A    between atoms: _318  and  _321
REMARK  143  A    between atoms: _321  and  _322
REMARK  144  A    between atoms: _325  and  _327
REMARK  145  A    between atoms: _327  and  _328
REMARK  146  A    between atoms: _327  and  _330
REMARK  147  A    between atoms: _330  and  _331
REMARK  148  A    between atoms: _334  and  _336
REMARK  149  A    between atoms: _336  and  _337
REMARK  150  A    between atoms: _336  and  _339
REMARK  151  A    between atoms: _339  and  _340
REMARK  152  A    between atoms: _343  and  _345
REMARK  153  A    between atoms: _345  and  _346
REMARK  154  A    between atoms: _345  and  _348
REMARK  155  A    between atoms: _348  and  _349
REMARK  156  A    between atoms: _349  and  _350
REMARK  157  A    between atoms: _350  and  _351
REMARK  158  A    between atoms: _360  and  _362
REMARK  159  A    between atoms: _362  and  _363
REMARK  160  A    between atoms: _362  and  _365
REMARK  161  A    between atoms: _365  and  _366
REMARK  162  A    between atoms: _369  and  _371
REMARK  163  A    between atoms: _371  and  _372
REMARK  164  A    between atoms: _371  and  _374
REMARK  165  A    between atoms: _374  and  _375
REMARK  166  A    between atoms: _375  and  _376
REMARK  167  A    between atoms: _376  and  _377
REMARK  168  A    between atoms: _386  and  _388
REMARK  169  A    between atoms: _388  and  _389
REMARK  170  A    between atoms: _388  and  _391
REMARK  171  A    between atoms: _391  and  _392
REMARK  172  A    between atoms: _398  and  _400
REMARK  173  A    between atoms: _400  and  _401
REMARK  174  A    between atoms: _400  and  _403
REMARK  175  A    between atoms: _403  and  _404
REMARK  176  A    between atoms: _407  and  _409
REMARK  177  A    between atoms: _409  and  _410
REMARK  178  A    between atoms: _409  and  _412
REMARK  179  A    between atoms: _412  and  _413
REMARK  180  A    between atoms: _413  and  _414
REMARK  181  A    between atoms: _414  and  _415
REMARK                            x       y       z     vdW  Elec       q    Type
REMARK                         _______ _______ _______ _____ _____    ______ ____
ROOT
ATOM      1  O   HOH     1      -7.079  -1.676 -49.446  0.00  0.00    +0.000 OA
ENDROOT
TORSDOF 0
REMARK  Name = ../refined-set-2016/3n9r/3n9r_pocket.pdb
REMARK  181 active torsions:
REMARK  status: ('A' for Active; 'I' for Inactive)
REMARK    1  A    between atoms: _1  and  _3
REMARK    2  A    between atoms: _3  and  _4
REMARK    3  A    between atoms: _7  and  _9
REMARK    4  A    between atoms: _9  and  _10
REMARK    5  A    between atoms: _9  and  _12
REMARK    6  A    between atoms: _12  and  _13
REMARK    7  A    between atoms: _18  and  _20
REMARK    8  A    between atoms: _20  and  _21
REMARK    9  A    between atoms: _20  and  _23
REMARK   10  A    between atoms: _23  and  _24
REMARK   11  A    between atoms: _24  and  _25
REMARK   12  A    between atoms: _30  and  _32
REMARK   13  A    between atoms: _32  and  _33
REMARK   14  A    between atoms: _32  and  _35
REMARK   15  A    between atoms: _35  and  _36
REMARK   16  A    between atoms: _38  and  _40
REMARK   17  A    between atoms: _40  and  _41
REMARK   18  A    between atoms: _40  and  _43
REMARK   19  A    between atoms: _43  and  _44
REMARK   20  A    between atoms: _47  and  _49
REMARK   21  A    between atoms: _49  and  _50
REMARK   22  A    between atoms: _49  and  _52
REMARK   23  A    between atoms: _52  and  _53
REMARK   24  A    between atoms: _57  and  ZN_424
REMARK   25  A    between atoms: _58  and  _60
REMARK   26  A    between atoms: _60  and  _61
REMARK   27  A    between atoms: _60  and  _63
REMARK   28  A    between atoms: _63  and  _64
REMARK   29  A    between atoms: _64  and  _65
REMARK   30  A    between atoms: _67  and  _69
REMARK   31  A    between atoms: _69  and  _70
REMARK   32  A    between atoms: _69  and  _72
REMARK   33  A    between atoms: _72  and  _73
REMARK   34  A    between atoms: _76  and  _78
REMARK   35  A    between atoms: _78  and  _79
REMARK   36  A    between atoms: _78  and  _81
REMARK   37  A    between atoms: _81  and  _82
REMARK   38  A    between atoms: _82  and  _83
REMARK   39  A    between atoms: _86  and  _88
REMARK   40  A    between atoms: _88  and  _89
REMARK   41  A    between atoms: _88  and  _91
REMARK   42  A    between atoms: _91  and  _92
REMARK   43  A    between atoms: _92  and  _93
REMARK   44  A    between atoms: _96  and  _98
REMARK   45  A    between atoms: _98  and  _99
REMARK   46  A    between atoms: _98  and  _101
REMARK   47  A    between atoms: _101  and  _102
REMARK   48  A    between atoms: _105  and  _107
REMARK   49  A    between atoms: _107  and  _108
REMARK   50  A    between atoms: _107  and  _110
REMARK   51  A    between atoms: _110  and  _111
REMARK   52  A    between atoms: _114  and  _116
REMARK   53  A    between atoms: _116  and  _117
REMARK   54  A    between atoms: _116  and  _119
REMARK   55  A    between atoms: _119  and  _120
REMARK   56  A    between atoms: _122  and  _124
REMARK   57  A    between atoms: _124  and  _125
REMARK   58  A    between atoms: _124  and  _127
REMARK   59  A    between atoms: _127  and  _128
REMARK   60  A    between atoms: _132  and  ZN_424
REMARK   61  A    between atoms: _133  and  _135
REMARK   62  A    between atoms: _135  and  _136
REMARK   63  A    between atoms: _138  and  _140
REMARK   64  A    between atoms: _140  and  _141
REMARK   65  A    between atoms: _144  and  _146
REMARK   66  A    between atoms: _146  and  _147
REMARK   67  A    between atoms: _146  and  _149
REMARK   68  A    between atoms: _149  and  _150
REMARK   69  A    between atoms: _156  and  _158
REMARK   70  A    between atoms: _158  and  _159
REMARK   71  A    between atoms: _158  and  _161
REMARK   72  A    between atoms: _161  and  _162
REMARK   73  A    between atoms: _162  and  _163
REMARK   74  A    between atoms: _163  and  _164
REMARK   75  A    between atoms: _164  and  _165
REMARK   76  A    between atoms: _169  and  _171
REMARK   77  A    between atoms: _171  and  _172
REMARK   78  A    between atoms: _171  and  _174
REMARK   79  A    between atoms: _177  and  _179
REMARK   80  A    between atoms: _179  and  _180
REMARK   81  A    between atoms: _179  and  _182
REMARK   82  A    between atoms: _182  and  _183
REMARK   83  A    between atoms: _186  and  _188
REMARK   84  A    between atoms: _188  and  _189
REMARK   85  A    between atoms: _188  and  _191
REMARK   86  A    between atoms: _191  and  _192
REMARK   87  A    between atoms: _193  and  ZN_424
REMARK   88  A    between atoms: _197  and  _199
REMARK   89  A    between atoms: _199  and  _200
REMARK   90  A    between atoms: _202  and  _204
REMARK   91  A    between atoms: _204  and  _205
REMARK   92  A    between atoms: _208  and  _210
REMARK   93  A    between atoms: _210  and  _211
REMARK   94  A    between atoms: _210  and  _213
REMARK   95  A    between atoms: _213  and  _214
REMARK   96  A    between atoms: _216  and  _218
REMARK   97  A    between atoms: _218  and  _219
REMARK   98  A    between atoms: _222  and  _224
REMARK   99  A    between atoms: _224  and  _225
REMARK  100  A    between atoms: _224  and  _227
REMARK  101  A    between atoms: _227  and  _228
REMARK  102  A    between atoms: _231  and  _233
REMARK  103  A    between atoms: _233  and  _234
REMARK  104  A    between atoms: _233  and  _236
REMARK  105  A    between atoms: _236  and  _237
REMARK  106  A    between atoms: _237  and  _238
REMARK  107  A    between atoms: _238  and  _239
REMARK  108  A    between atoms: _239  and  _240
REMARK  109  A    between atoms: _244  and  _246
REMARK  110  A    between atoms: _246  and  _247
REMARK  111  A    between atoms: _249  and  _251
REMARK  112  A    between atoms: _251  and  _252
REMARK  113  A    between atoms: _251  and  _254
REMARK  114  A    between atoms: _257  and  _259
REMARK  115  A    between atoms: _259  and  _260
REMARK  116  A    between atoms: _259  and  _262
REMARK  117  A    between atoms: _262  and  _263
REMARK  118  A    between atoms: _266  and  _268
REMARK  119  A    between atoms: _268  and  _269
REMARK  120  A    between atoms: _268  and  _271
REMARK  121  A    between atoms: _271  and  _272
REMARK  122  A    between atoms: _272  and  _273
REMARK  123  A    between atoms: _273  and  _274
REMARK  124  A    between atoms: _274  and  _275
REMARK  125  A    between atoms: _279  and  _281
REMARK  126  A    between atoms: _281  and  _282
REMARK  127  A    between atoms: _281  and  _284
REMARK  128  A    between atoms: _287  and  _289
REMARK  129  A    between atoms: _289  and  _290
REMARK  130  A    between atoms: _289  and  _292
REMARK  131  A    between atoms: _292  and  _293
REMARK  132  A    between atoms: _298  and  _300
REMARK  133  A    between atoms: _300  and  _301
REMARK  134  A    between atoms: _300  and  _303
REMARK  135  A    between atoms: _303  and  _304
REMARK  136  A    between atoms: _307  and  _309
REMARK  137  A    between atoms: _309  and  _310
REMARK  138  A    between atoms: _309  and  _312
REMARK  139  A    between atoms: _312  and  _313
REMARK  140  A    between atoms: _316  and  _318
REMARK  141  A    between atoms: _318  and  _319
REMARK  142  A    between atoms: _318  and  _321
REMARK  143  A    between atoms: _321  and  _322
REMARK  144  A    between atoms: _325  and  _327
REMARK  145  A    between atoms: _327  and  _328
REMARK  146  A    between atoms: _327  and  _330
REMARK  147  A    between atoms: _330  and  _331
REMARK  148  A    between atoms: _334  and  _336
REMARK  149  A    between atoms: _336  and  _337
REMARK  150  A    between atoms: _336  and  _339
REMARK  151  A    between atoms: _339  and  _340
REMARK  152  A    between atoms: _343  and  _345
REMARK  153  A    between atoms: _345  and  _346
REMARK  154  A    between atoms: _345  and  _348
REMARK  155  A    between atoms: _348  and  _349
REMARK  156  A    between atoms: _349  and  _350
REMARK  157  A    between atoms: _350  and  _351
REMARK  158  A    between atoms: _360  and  _362
REMARK  159  A    between atoms: _362  and  _363
REMARK  160  A    between atoms: _362  and  _365
REMARK  161  A    between atoms: _365  and  _366
REMARK  162  A    between atoms: _369  and  _371
REMARK  163  A    between atoms: _371  and  _372
REMARK  164  A    between atoms: _371  and  _374
REMARK  165  A    between atoms: _374  and  _375
REMARK  166  A    between atoms: _375  and  _376
REMARK  167  A    between atoms: _376  and  _377
REMARK  168  A    between atoms: _386  and  _388
REMARK  169  A    between atoms: _388  and  _389
REMARK  170  A    between atoms: _388  and  _391
REMARK  171  A    between atoms: _391  and  _392
REMARK  172  A    between atoms: _398  and  _400
REMARK  173  A    between atoms: _400  and  _401
REMARK  174  A    between atoms: _400  and  _403
REMARK  175  A    between atoms: _403  and  _404
REMARK  176  A    between atoms: _407  and  _409
REMARK  177  A    between atoms: _409  and  _410
REMARK  178  A    between atoms: _409  and  _412
REMARK  179  A    between atoms: _412  and  _413
REMARK  180  A    between atoms: _413  and  _414
REMARK  181  A    between atoms: _414  and  _415
REMARK                            x       y       z     vdW  Elec       q    Type
REMARK                         _______ _______ _______ _____ _____    ______ ____
ROOT
ATOM      1  O   HOH     1      -9.363 -10.958 -49.516  0.00  0.00    +0.000 OA
ENDROOT
TORSDOF 0
REMARK  Name = ../refined-set-2016/3n9r/3n9r_pocket.pdb
REMARK  181 active torsions:
REMARK  status: ('A' for Active; 'I' for Inactive)
REMARK    1  A    between atoms: _1  and  _3
REMARK    2  A    between atoms: _3  and  _4
REMARK    3  A    between atoms: _7  and  _9
REMARK    4  A    between atoms: _9  and  _10
REMARK    5  A    between atoms: _9  and  _12
REMARK    6  A    between atoms: _12  and  _13
REMARK    7  A    between atoms: _18  and  _20
REMARK    8  A    between atoms: _20  and  _21
REMARK    9  A    between atoms: _20  and  _23
REMARK   10  A    between atoms: _23  and  _24
REMARK   11  A    between atoms: _24  and  _25
REMARK   12  A    between atoms: _30  and  _32
REMARK   13  A    between atoms: _32  and  _33
REMARK   14  A    between atoms: _32  and  _35
REMARK   15  A    between atoms: _35  and  _36
REMARK   16  A    between atoms: _38  and  _40
REMARK   17  A    between atoms: _40  and  _41
REMARK   18  A    between atoms: _40  and  _43
REMARK   19  A    between atoms: _43  and  _44
REMARK   20  A    between atoms: _47  and  _49
REMARK   21  A    between atoms: _49  and  _50
REMARK   22  A    between atoms: _49  and  _52
REMARK   23  A    between atoms: _52  and  _53
REMARK   24  A    between atoms: _57  and  ZN_424
REMARK   25  A    between atoms: _58  and  _60
REMARK   26  A    between atoms: _60  and  _61
REMARK   27  A    between atoms: _60  and  _63
REMARK   28  A    between atoms: _63  and  _64
REMARK   29  A    between atoms: _64  and  _65
REMARK   30  A    between atoms: _67  and  _69
REMARK   31  A    between atoms: _69  and  _70
REMARK   32  A    between atoms: _69  and  _72
REMARK   33  A    between atoms: _72  and  _73
REMARK   34  A    between atoms: _76  and  _78
REMARK   35  A    between atoms: _78  and  _79
REMARK   36  A    between atoms: _78  and  _81
REMARK   37  A    between atoms: _81  and  _82
REMARK   38  A    between atoms: _82  and  _83
REMARK   39  A    between atoms: _86  and  _88
REMARK   40  A    between atoms: _88  and  _89
REMARK   41  A    between atoms: _88  and  _91
REMARK   42  A    between atoms: _91  and  _92
REMARK   43  A    between atoms: _92  and  _93
REMARK   44  A    between atoms: _96  and  _98
REMARK   45  A    between atoms: _98  and  _99
REMARK   46  A    between atoms: _98  and  _101
REMARK   47  A    between atoms: _101  and  _102
REMARK   48  A    between atoms: _105  and  _107
REMARK   49  A    between atoms: _107  and  _108
REMARK   50  A    between atoms: _107  and  _110
REMARK   51  A    between atoms: _110  and  _111
REMARK   52  A    between atoms: _114  and  _116
REMARK   53  A    between atoms: _116  and  _117
REMARK   54  A    between atoms: _116  and  _119
REMARK   55  A    between atoms: _119  and  _120
REMARK   56  A    between atoms: _122  and  _124
REMARK   57  A    between atoms: _124  and  _125
REMARK   58  A    between atoms: _124  and  _127
REMARK   59  A    between atoms: _127  and  _128
REMARK   60  A    between atoms: _132  and  ZN_424
REMARK   61  A    between atoms: _133  and  _135
REMARK   62  A    between atoms: _135  and  _136
REMARK   63  A    between atoms: _138  and  _140
REMARK   64  A    between atoms: _140  and  _141
REMARK   65  A    between atoms: _144  and  _146
REMARK   66  A    between atoms: _146  and  _147
REMARK   67  A    between atoms: _146  and  _149
REMARK   68  A    between atoms: _149  and  _150
REMARK   69  A    between atoms: _156  and  _158
REMARK   70  A    between atoms: _158  and  _159
REMARK   71  A    between atoms: _158  and  _161
REMARK   72  A    between atoms: _161  and  _162
REMARK   73  A    between atoms: _162  and  _163
REMARK   74  A    between atoms: _163  and  _164
REMARK   75  A    between atoms: _164  and  _165
REMARK   76  A    between atoms: _169  and  _171
REMARK   77  A    between atoms: _171  and  _172
REMARK   78  A    between atoms: _171  and  _174
REMARK   79  A    between atoms: _177  and  _179
REMARK   80  A    between atoms: _179  and  _180
REMARK   81  A    between atoms: _179  and  _182
REMARK   82  A    between atoms: _182  and  _183
REMARK   83  A    between atoms: _186  and  _188
REMARK   84  A    between atoms: _188  and  _189
REMARK   85  A    between atoms: _188  and  _191
REMARK   86  A    between atoms: _191  and  _192
REMARK   87  A    between atoms: _193  and  ZN_424
REMARK   88  A    between atoms: _197  and  _199
REMARK   89  A    between atoms: _199  and  _200
REMARK   90  A    between atoms: _202  and  _204
REMARK   91  A    between atoms: _204  and  _205
REMARK   92  A    between atoms: _208  and  _210
REMARK   93  A    between atoms: _210  and  _211
REMARK   94  A    between atoms: _210  and  _213
REMARK   95  A    between atoms: _213  and  _214
REMARK   96  A    between atoms: _216  and  _218
REMARK   97  A    between atoms: _218  and  _219
REMARK   98  A    between atoms: _222  and  _224
REMARK   99  A    between atoms: _224  and  _225
REMARK  100  A    between atoms: _224  and  _227
REMARK  101  A    between atoms: _227  and  _228
REMARK  102  A    between atoms: _231  and  _233
REMARK  103  A    between atoms: _233  and  _234
REMARK  104  A    between atoms: _233  and  _236
REMARK  105  A    between atoms: _236  and  _237
REMARK  106  A    between atoms: _237  and  _238
REMARK  107  A    between atoms: _238  and  _239
REMARK  108  A    between atoms: _239  and  _240
REMARK  109  A    between atoms: _244  and  _246
REMARK  110  A    between atoms: _246  and  _247
REMARK  111  A    between atoms: _249  and  _251
REMARK  112  A    between atoms: _251  and  _252
REMARK  113  A    between atoms: _251  and  _254
REMARK  114  A    between atoms: _257  and  _259
REMARK  115  A    between atoms: _259  and  _260
REMARK  116  A    between atoms: _259  and  _262
REMARK  117  A    between atoms: _262  and  _263
REMARK  118  A    between atoms: _266  and  _268
REMARK  119  A    between atoms: _268  and  _269
REMARK  120  A    between atoms: _268  and  _271
REMARK  121  A    between atoms: _271  and  _272
REMARK  122  A    between atoms: _272  and  _273
REMARK  123  A    between atoms: _273  and  _274
REMARK  124  A    between atoms: _274  and  _275
REMARK  125  A    between atoms: _279  and  _281
REMARK  126  A    between atoms: _281  and  _282
REMARK  127  A    between atoms: _281  and  _284
REMARK  128  A    between atoms: _287  and  _289
REMARK  129  A    between atoms: _289  and  _290
REMARK  130  A    between atoms: _289  and  _292
REMARK  131  A    between atoms: _292  and  _293
REMARK  132  A    between atoms: _298  and  _300
REMARK  133  A    between atoms: _300  and  _301
REMARK  134  A    between atoms: _300  and  _303
REMARK  135  A    between atoms: _303  and  _304
REMARK  136  A    between atoms: _307  and  _309
REMARK  137  A    between atoms: _309  and  _310
REMARK  138  A    between atoms: _309  and  _312
REMARK  139  A    between atoms: _312  and  _313
REMARK  140  A    between atoms: _316  and  _318
REMARK  141  A    between atoms: _318  and  _319
REMARK  142  A    between atoms: _318  and  _321
REMARK  143  A    between atoms: _321  and  _322
REMARK  144  A    between atoms: _325  and  _327
REMARK  145  A    between atoms: _327  and  _328
REMARK  146  A    between atoms: _327  and  _330
REMARK  147  A    between atoms: _330  and  _331
REMARK  148  A    between atoms: _334  and  _336
REMARK  149  A    between atoms: _336  and  _337
REMARK  150  A    between atoms: _336  and  _339
REMARK  151  A    between atoms: _339  and  _340
REMARK  152  A    between atoms: _343  and  _345
REMARK  153  A    between atoms: _345  and  _346
REMARK  154  A    between atoms: _345  and  _348
REMARK  155  A    between atoms: _348  and  _349
REMARK  156  A    between atoms: _349  and  _350
REMARK  157  A    between atoms: _350  and  _351
REMARK  158  A    between atoms: _360  and  _362
REMARK  159  A    between atoms: _362  and  _363
REMARK  160  A    between atoms: _362  and  _365
REMARK  161  A    between atoms: _365  and  _366
REMARK  162  A    between atoms: _369  and  _371
REMARK  163  A    between atoms: _371  and  _372
REMARK  164  A    between atoms: _371  and  _374
REMARK  165  A    between atoms: _374  and  _375
REMARK  166  A    between atoms: _375  and  _376
REMARK  167  A    between atoms: _376  and  _377
REMARK  168  A    between atoms: _386  and  _388
REMARK  169  A    between atoms: _388  and  _389
REMARK  170  A    between atoms: _388  and  _391
REMARK  171  A    between atoms: _391  and  _392
REMARK  172  A    between atoms: _398  and  _400
REMARK  173  A    between atoms: _400  and  _401
REMARK  174  A    between atoms: _400  and  _403
REMARK  175  A    between atoms: _403  and  _404
REMARK  176  A    between atoms: _407  and  _409
REMARK  177  A    between atoms: _409  and  _410
REMARK  178  A    between atoms: _409  and  _412
REMARK  179  A    between atoms: _412  and  _413
REMARK  180  A    between atoms: _413  and  _414
REMARK  181  A    between atoms: _414  and  _415
REMARK                            x       y       z     vdW  Elec       q    Type
REMARK                         _______ _______ _______ _____ _____    ______ ____
ROOT
ATOM      1  O   HOH     1      -6.319  -4.653 -35.722  0.00  0.00    +0.000 OA
ENDROOT
TORSDOF 0
REMARK  Name = ../refined-set-2016/3n9r/3n9r_pocket.pdb
REMARK  181 active torsions:
REMARK  status: ('A' for Active; 'I' for Inactive)
REMARK    1  A    between atoms: _1  and  _3
REMARK    2  A    between atoms: _3  and  _4
REMARK    3  A    between atoms: _7  and  _9
REMARK    4  A    between atoms: _9  and  _10
REMARK    5  A    between atoms: _9  and  _12
REMARK    6  A    between atoms: _12  and  _13
REMARK    7  A    between atoms: _18  and  _20
REMARK    8  A    between atoms: _20  and  _21
REMARK    9  A    between atoms: _20  and  _23
REMARK   10  A    between atoms: _23  and  _24
REMARK   11  A    between atoms: _24  and  _25
REMARK   12  A    between atoms: _30  and  _32
REMARK   13  A    between atoms: _32  and  _33
REMARK   14  A    between atoms: _32  and  _35
REMARK   15  A    between atoms: _35  and  _36
REMARK   16  A    between atoms: _38  and  _40
REMARK   17  A    between atoms: _40  and  _41
REMARK   18  A    between atoms: _40  and  _43
REMARK   19  A    between atoms: _43  and  _44
REMARK   20  A    between atoms: _47  and  _49
REMARK   21  A    between atoms: _49  and  _50
REMARK   22  A    between atoms: _49  and  _52
REMARK   23  A    between atoms: _52  and  _53
REMARK   24  A    between atoms: _57  and  ZN_424
REMARK   25  A    between atoms: _58  and  _60
REMARK   26  A    between atoms: _60  and  _61
REMARK   27  A    between atoms: _60  and  _63
REMARK   28  A    between atoms: _63  and  _64
REMARK   29  A    between atoms: _64  and  _65
REMARK   30  A    between atoms: _67  and  _69
REMARK   31  A    between atoms: _69  and  _70
REMARK   32  A    between atoms: _69  and  _72
REMARK   33  A    between atoms: _72  and  _73
REMARK   34  A    between atoms: _76  and  _78
REMARK   35  A    between atoms: _78  and  _79
REMARK   36  A    between atoms: _78  and  _81
REMARK   37  A    between atoms: _81  and  _82
REMARK   38  A    between atoms: _82  and  _83
REMARK   39  A    between atoms: _86  and  _88
REMARK   40  A    between atoms: _88  and  _89
REMARK   41  A    between atoms: _88  and  _91
REMARK   42  A    between atoms: _91  and  _92
REMARK   43  A    between atoms: _92  and  _93
REMARK   44  A    between atoms: _96  and  _98
REMARK   45  A    between atoms: _98  and  _99
REMARK   46  A    between atoms: _98  and  _101
REMARK   47  A    between atoms: _101  and  _102
REMARK   48  A    between atoms: _105  and  _107
REMARK   49  A    between atoms: _107  and  _108
REMARK   50  A    between atoms: _107  and  _110
REMARK   51  A    between atoms: _110  and  _111
REMARK   52  A    between atoms: _114  and  _116
REMARK   53  A    between atoms: _116  and  _117
REMARK   54  A    between atoms: _116  and  _119
REMARK   55  A    between atoms: _119  and  _120
REMARK   56  A    between atoms: _122  and  _124
REMARK   57  A    between atoms: _124  and  _125
REMARK   58  A    between atoms: _124  and  _127
REMARK   59  A    between atoms: _127  and  _128
REMARK   60  A    between atoms: _132  and  ZN_424
REMARK   61  A    between atoms: _133  and  _135
REMARK   62  A    between atoms: _135  and  _136
REMARK   63  A    between atoms: _138  and  _140
REMARK   64  A    between atoms: _140  and  _141
REMARK   65  A    between atoms: _144  and  _146
REMARK   66  A    between atoms: _146  and  _147
REMARK   67  A    between atoms: _146  and  _149
REMARK   68  A    between atoms: _149  and  _150
REMARK   69  A    between atoms: _156  and  _158
REMARK   70  A    between atoms: _158  and  _159
REMARK   71  A    between atoms: _158  and  _161
REMARK   72  A    between atoms: _161  and  _162
REMARK   73  A    between atoms: _162  and  _163
REMARK   74  A    between atoms: _163  and  _164
REMARK   75  A    between atoms: _164  and  _165
REMARK   76  A    between atoms: _169  and  _171
REMARK   77  A    between atoms: _171  and  _172
REMARK   78  A    between atoms: _171  and  _174
REMARK   79  A    between atoms: _177  and  _179
REMARK   80  A    between atoms: _179  and  _180
REMARK   81  A    between atoms: _179  and  _182
REMARK   82  A    between atoms: _182  and  _183
REMARK   83  A    between atoms: _186  and  _188
REMARK   84  A    between atoms: _188  and  _189
REMARK   85  A    between atoms: _188  and  _191
REMARK   86  A    between atoms: _191  and  _192
REMARK   87  A    between atoms: _193  and  ZN_424
REMARK   88  A    between atoms: _197  and  _199
REMARK   89  A    between atoms: _199  and  _200
REMARK   90  A    between atoms: _202  and  _204
REMARK   91  A    between atoms: _204  and  _205
REMARK   92  A    between atoms: _208  and  _210
REMARK   93  A    between atoms: _210  and  _211
REMARK   94  A    between atoms: _210  and  _213
REMARK   95  A    between atoms: _213  and  _214
REMARK   96  A    between atoms: _216  and  _218
REMARK   97  A    between atoms: _218  and  _219
REMARK   98  A    between atoms: _222  and  _224
REMARK   99  A    between atoms: _224  and  _225
REMARK  100  A    between atoms: _224  and  _227
REMARK  101  A    between atoms: _227  and  _228
REMARK  102  A    between atoms: _231  and  _233
REMARK  103  A    between atoms: _233  and  _234
REMARK  104  A    between atoms: _233  and  _236
REMARK  105  A    between atoms: _236  and  _237
REMARK  106  A    between atoms: _237  and  _238
REMARK  107  A    between atoms: _238  and  _239
REMARK  108  A    between atoms: _239  and  _240
REMARK  109  A    between atoms: _244  and  _246
REMARK  110  A    between atoms: _246  and  _247
REMARK  111  A    between atoms: _249  and  _251
REMARK  112  A    between atoms: _251  and  _252
REMARK  113  A    between atoms: _251  and  _254
REMARK  114  A    between atoms: _257  and  _259
REMARK  115  A    between atoms: _259  and  _260
REMARK  116  A    between atoms: _259  and  _262
REMARK  117  A    between atoms: _262  and  _263
REMARK  118  A    between atoms: _266  and  _268
REMARK  119  A    between atoms: _268  and  _269
REMARK  120  A    between atoms: _268  and  _271
REMARK  121  A    between atoms: _271  and  _272
REMARK  122  A    between atoms: _272  and  _273
REMARK  123  A    between atoms: _273  and  _274
REMARK  124  A    between atoms: _274  and  _275
REMARK  125  A    between atoms: _279  and  _281
REMARK  126  A    between atoms: _281  and  _282
REMARK  127  A    between atoms: _281  and  _284
REMARK  128  A    between atoms: _287  and  _289
REMARK  129  A    between atoms: _289  and  _290
REMARK  130  A    between atoms: _289  and  _292
REMARK  131  A    between atoms: _292  and  _293
REMARK  132  A    between atoms: _298  and  _300
REMARK  133  A    between atoms: _300  and  _301
REMARK  134  A    between atoms: _300  and  _303
REMARK  135  A    between atoms: _303  and  _304
REMARK  136  A    between atoms: _307  and  _309
REMARK  137  A    between atoms: _309  and  _310
REMARK  138  A    between atoms: _309  and  _312
REMARK  139  A    between atoms: _312  and  _313
REMARK  140  A    between atoms: _316  and  _318
REMARK  141  A    between atoms: _318  and  _319
REMARK  142  A    between atoms: _318  and  _321
REMARK  143  A    between atoms: _321  and  _322
REMARK  144  A    between atoms: _325  and  _327
REMARK  145  A    between atoms: _327  and  _328
REMARK  146  A    between atoms: _327  and  _330
REMARK  147  A    between atoms: _330  and  _331
REMARK  148  A    between atoms: _334  and  _336
REMARK  149  A    between atoms: _336  and  _337
REMARK  150  A    between atoms: _336  and  _339
REMARK  151  A    between atoms: _339  and  _340
REMARK  152  A    between atoms: _343  and  _345
REMARK  153  A    between atoms: _345  and  _346
REMARK  154  A    between atoms: _345  and  _348
REMARK  155  A    between atoms: _348  and  _349
REMARK  156  A    between atoms: _349  and  _350
REMARK  157  A    between atoms: _350  and  _351
REMARK  158  A    between atoms: _360  and  _362
REMARK  159  A    between atoms: _362  and  _363
REMARK  160  A    between atoms: _362  and  _365
REMARK  161  A    between atoms: _365  and  _366
REMARK  162  A    between atoms: _369  and  _371
REMARK  163  A    between atoms: _371  and  _372
REMARK  164  A    between atoms: _371  and  _374
REMARK  165  A    between atoms: _374  and  _375
REMARK  166  A    between atoms: _375  and  _376
REMARK  167  A    between atoms: _376  and  _377
REMARK  168  A    between atoms: _386  and  _388
REMARK  169  A    between atoms: _388  and  _389
REMARK  170  A    between atoms: _388  and  _391
REMARK  171  A    between atoms: _391  and  _392
REMARK  172  A    between atoms: _398  and  _400
REMARK  173  A    between atoms: _400  and  _401
REMARK  174  A    between atoms: _400  and  _403
REMARK  175  A    between atoms: _403  and  _404
REMARK  176  A    between atoms: _407  and  _409
REMARK  177  A    between atoms: _409  and  _410
REMARK  178  A    between atoms: _409  and  _412
REMARK  179  A    between atoms: _412  and  _413
REMARK  180  A    between atoms: _413  and  _414
REMARK  181  A    between atoms: _414  and  _415
REMARK                            x       y       z     vdW  Elec       q    Type
REMARK                         _______ _______ _______ _____ _____    ______ ____
ROOT
ATOM      1  O   HOH     1      -7.287  -1.535 -46.352  0.00  0.00    +0.000 OA
ENDROOT
TORSDOF 0
REMARK  Name = ../refined-set-2016/3n9r/3n9r_pocket.pdb
REMARK  181 active torsions:
REMARK  status: ('A' for Active; 'I' for Inactive)
REMARK    1  A    between atoms: _1  and  _3
REMARK    2  A    between atoms: _3  and  _4
REMARK    3  A    between atoms: _7  and  _9
REMARK    4  A    between atoms: _9  and  _10
REMARK    5  A    between atoms: _9  and  _12
REMARK    6  A    between atoms: _12  and  _13
REMARK    7  A    between atoms: _18  and  _20
REMARK    8  A    between atoms: _20  and  _21
REMARK    9  A    between atoms: _20  and  _23
REMARK   10  A    between atoms: _23  and  _24
REMARK   11  A    between atoms: _24  and  _25
REMARK   12  A    between atoms: _30  and  _32
REMARK   13  A    between atoms: _32  and  _33
REMARK   14  A    between atoms: _32  and  _35
REMARK   15  A    between atoms: _35  and  _36
REMARK   16  A    between atoms: _38  and  _40
REMARK   17  A    between atoms: _40  and  _41
REMARK   18  A    between atoms: _40  and  _43
REMARK   19  A    between atoms: _43  and  _44
REMARK   20  A    between atoms: _47  and  _49
REMARK   21  A    between atoms: _49  and  _50
REMARK   22  A    between atoms: _49  and  _52
REMARK   23  A    between atoms: _52  and  _53
REMARK   24  A    between atoms: _57  and  ZN_424
REMARK   25  A    between atoms: _58  and  _60
REMARK   26  A    between atoms: _60  and  _61
REMARK   27  A    between atoms: _60  and  _63
REMARK   28  A    between atoms: _63  and  _64
REMARK   29  A    between atoms: _64  and  _65
REMARK   30  A    between atoms: _67  and  _69
REMARK   31  A    between atoms: _69  and  _70
REMARK   32  A    between atoms: _69  and  _72
REMARK   33  A    between atoms: _72  and  _73
REMARK   34  A    between atoms: _76  and  _78
REMARK   35  A    between atoms: _78  and  _79
REMARK   36  A    between atoms: _78  and  _81
REMARK   37  A    between atoms: _81  and  _82
REMARK   38  A    between atoms: _82  and  _83
REMARK   39  A    between atoms: _86  and  _88
REMARK   40  A    between atoms: _88  and  _89
REMARK   41  A    between atoms: _88  and  _91
REMARK   42  A    between atoms: _91  and  _92
REMARK   43  A    between atoms: _92  and  _93
REMARK   44  A    between atoms: _96  and  _98
REMARK   45  A    between atoms: _98  and  _99
REMARK   46  A    between atoms: _98  and  _101
REMARK   47  A    between atoms: _101  and  _102
REMARK   48  A    between atoms: _105  and  _107
REMARK   49  A    between atoms: _107  and  _108
REMARK   50  A    between atoms: _107  and  _110
REMARK   51  A    between atoms: _110  and  _111
REMARK   52  A    between atoms: _114  and  _116
REMARK   53  A    between atoms: _116  and  _117
REMARK   54  A    between atoms: _116  and  _119
REMARK   55  A    between atoms: _119  and  _120
REMARK   56  A    between atoms: _122  and  _124
REMARK   57  A    between atoms: _124  and  _125
REMARK   58  A    between atoms: _124  and  _127
REMARK   59  A    between atoms: _127  and  _128
REMARK   60  A    between atoms: _132  and  ZN_424
REMARK   61  A    between atoms: _133  and  _135
REMARK   62  A    between atoms: _135  and  _136
REMARK   63  A    between atoms: _138  and  _140
REMARK   64  A    between atoms: _140  and  _141
REMARK   65  A    between atoms: _144  and  _146
REMARK   66  A    between atoms: _146  and  _147
REMARK   67  A    between atoms: _146  and  _149
REMARK   68  A    between atoms: _149  and  _150
REMARK   69  A    between atoms: _156  and  _158
REMARK   70  A    between atoms: _158  and  _159
REMARK   71  A    between atoms: _158  and  _161
REMARK   72  A    between atoms: _161  and  _162
REMARK   73  A    between atoms: _162  and  _163
REMARK   74  A    between atoms: _163  and  _164
REMARK   75  A    between atoms: _164  and  _165
REMARK   76  A    between atoms: _169  and  _171
REMARK   77  A    between atoms: _171  and  _172
REMARK   78  A    between atoms: _171  and  _174
REMARK   79  A    between atoms: _177  and  _179
REMARK   80  A    between atoms: _179  and  _180
REMARK   81  A    between atoms: _179  and  _182
REMARK   82  A    between atoms: _182  and  _183
REMARK   83  A    between atoms: _186  and  _188
REMARK   84  A    between atoms: _188  and  _189
REMARK   85  A    between atoms: _188  and  _191
REMARK   86  A    between atoms: _191  and  _192
REMARK   87  A    between atoms: _193  and  ZN_424
REMARK   88  A    between atoms: _197  and  _199
REMARK   89  A    between atoms: _199  and  _200
REMARK   90  A    between atoms: _202  and  _204
REMARK   91  A    between atoms: _204  and  _205
REMARK   92  A    between atoms: _208  and  _210
REMARK   93  A    between atoms: _210  and  _211
REMARK   94  A    between atoms: _210  and  _213
REMARK   95  A    between atoms: _213  and  _214
REMARK   96  A    between atoms: _216  and  _218
REMARK   97  A    between atoms: _218  and  _219
REMARK   98  A    between atoms: _222  and  _224
REMARK   99  A    between atoms: _224  and  _225
REMARK  100  A    between atoms: _224  and  _227
REMARK  101  A    between atoms: _227  and  _228
REMARK  102  A    between atoms: _231  and  _233
REMARK  103  A    between atoms: _233  and  _234
REMARK  104  A    between atoms: _233  and  _236
REMARK  105  A    between atoms: _236  and  _237
REMARK  106  A    between atoms: _237  and  _238
REMARK  107  A    between atoms: _238  and  _239
REMARK  108  A    between atoms: _239  and  _240
REMARK  109  A    between atoms: _244  and  _246
REMARK  110  A    between atoms: _246  and  _247
REMARK  111  A    between atoms: _249  and  _251
REMARK  112  A    between atoms: _251  and  _252
REMARK  113  A    between atoms: _251  and  _254
REMARK  114  A    between atoms: _257  and  _259
REMARK  115  A    between atoms: _259  and  _260
REMARK  116  A    between atoms: _259  and  _262
REMARK  117  A    between atoms: _262  and  _263
REMARK  118  A    between atoms: _266  and  _268
REMARK  119  A    between atoms: _268  and  _269
REMARK  120  A    between atoms: _268  and  _271
REMARK  121  A    between atoms: _271  and  _272
REMARK  122  A    between atoms: _272  and  _273
REMARK  123  A    between atoms: _273  and  _274
REMARK  124  A    between atoms: _274  and  _275
REMARK  125  A    between atoms: _279  and  _281
REMARK  126  A    between atoms: _281  and  _282
REMARK  127  A    between atoms: _281  and  _284
REMARK  128  A    between atoms: _287  and  _289
REMARK  129  A    between atoms: _289  and  _290
REMARK  130  A    between atoms: _289  and  _292
REMARK  131  A    between atoms: _292  and  _293
REMARK  132  A    between atoms: _298  and  _300
REMARK  133  A    between atoms: _300  and  _301
REMARK  134  A    between atoms: _300  and  _303
REMARK  135  A    between atoms: _303  and  _304
REMARK  136  A    between atoms: _307  and  _309
REMARK  137  A    between atoms: _309  and  _310
REMARK  138  A    between atoms: _309  and  _312
REMARK  139  A    between atoms: _312  and  _313
REMARK  140  A    between atoms: _316  and  _318
REMARK  141  A    between atoms: _318  and  _319
REMARK  142  A    between atoms: _318  and  _321
REMARK  143  A    between atoms: _321  and  _322
REMARK  144  A    between atoms: _325  and  _327
REMARK  145  A    between atoms: _327  and  _328
REMARK  146  A    between atoms: _327  and  _330
REMARK  147  A    between atoms: _330  and  _331
REMARK  148  A    between atoms: _334  and  _336
REMARK  149  A    between atoms: _336  and  _337
REMARK  150  A    between atoms: _336  and  _339
REMARK  151  A    between atoms: _339  and  _340
REMARK  152  A    between atoms: _343  and  _345
REMARK  153  A    between atoms: _345  and  _346
REMARK  154  A    between atoms: _345  and  _348
REMARK  155  A    between atoms: _348  and  _349
REMARK  156  A    between atoms: _349  and  _350
REMARK  157  A    between atoms: _350  and  _351
REMARK  158  A    between atoms: _360  and  _362
REMARK  159  A    between atoms: _362  and  _363
REMARK  160  A    between atoms: _362  and  _365
REMARK  161  A    between atoms: _365  and  _366
REMARK  162  A    between atoms: _369  and  _371
REMARK  163  A    between atoms: _371  and  _372
REMARK  164  A    between atoms: _371  and  _374
REMARK  165  A    between atoms: _374  and  _375
REMARK  166  A    between atoms: _375  and  _376
REMARK  167  A    between atoms: _376  and  _377
REMARK  168  A    between atoms: _386  and  _388
REMARK  169  A    between atoms: _388  and  _389
REMARK  170  A    between atoms: _388  and  _391
REMARK  171  A    between atoms: _391  and  _392
REMARK  172  A    between atoms: _398  and  _400
REMARK  173  A    between atoms: _400  and  _401
REMARK  174  A    between atoms: _400  and  _403
REMARK  175  A    between atoms: _403  and  _404
REMARK  176  A    between atoms: _407  and  _409
REMARK  177  A    between atoms: _409  and  _410
REMARK  178  A    between atoms: _409  and  _412
REMARK  179  A    between atoms: _412  and  _413
REMARK  180  A    between atoms: _413  and  _414
REMARK  181  A    between atoms: _414  and  _415
REMARK                            x       y       z     vdW  Elec       q    Type
REMARK                         _______ _______ _______ _____ _____    ______ ____
ROOT
ATOM      1  O   HOH     1      -7.001  -8.116 -39.938  0.00  0.00    +0.000 OA
ENDROOT
TORSDOF 0
REMARK  Name = ../refined-set-2016/3n9r/3n9r_pocket.pdb
REMARK  181 active torsions:
REMARK  status: ('A' for Active; 'I' for Inactive)
REMARK    1  A    between atoms: _1  and  _3
REMARK    2  A    between atoms: _3  and  _4
REMARK    3  A    between atoms: _7  and  _9
REMARK    4  A    between atoms: _9  and  _10
REMARK    5  A    between atoms: _9  and  _12
REMARK    6  A    between atoms: _12  and  _13
REMARK    7  A    between atoms: _18  and  _20
REMARK    8  A    between atoms: _20  and  _21
REMARK    9  A    between atoms: _20  and  _23
REMARK   10  A    between atoms: _23  and  _24
REMARK   11  A    between atoms: _24  and  _25
REMARK   12  A    between atoms: _30  and  _32
REMARK   13  A    between atoms: _32  and  _33
REMARK   14  A    between atoms: _32  and  _35
REMARK   15  A    between atoms: _35  and  _36
REMARK   16  A    between atoms: _38  and  _40
REMARK   17  A    between atoms: _40  and  _41
REMARK   18  A    between atoms: _40  and  _43
REMARK   19  A    between atoms: _43  and  _44
REMARK   20  A    between atoms: _47  and  _49
REMARK   21  A    between atoms: _49  and  _50
REMARK   22  A    between atoms: _49  and  _52
REMARK   23  A    between atoms: _52  and  _53
REMARK   24  A    between atoms: _57  and  ZN_424
REMARK   25  A    between atoms: _58  and  _60
REMARK   26  A    between atoms: _60  and  _61
REMARK   27  A    between atoms: _60  and  _63
REMARK   28  A    between atoms: _63  and  _64
REMARK   29  A    between atoms: _64  and  _65
REMARK   30  A    between atoms: _67  and  _69
REMARK   31  A    between atoms: _69  and  _70
REMARK   32  A    between atoms: _69  and  _72
REMARK   33  A    between atoms: _72  and  _73
REMARK   34  A    between atoms: _76  and  _78
REMARK   35  A    between atoms: _78  and  _79
REMARK   36  A    between atoms: _78  and  _81
REMARK   37  A    between atoms: _81  and  _82
REMARK   38  A    between atoms: _82  and  _83
REMARK   39  A    between atoms: _86  and  _88
REMARK   40  A    between atoms: _88  and  _89
REMARK   41  A    between atoms: _88  and  _91
REMARK   42  A    between atoms: _91  and  _92
REMARK   43  A    between atoms: _92  and  _93
REMARK   44  A    between atoms: _96  and  _98
REMARK   45  A    between atoms: _98  and  _99
REMARK   46  A    between atoms: _98  and  _101
REMARK   47  A    between atoms: _101  and  _102
REMARK   48  A    between atoms: _105  and  _107
REMARK   49  A    between atoms: _107  and  _108
REMARK   50  A    between atoms: _107  and  _110
REMARK   51  A    between atoms: _110  and  _111
REMARK   52  A    between atoms: _114  and  _116
REMARK   53  A    between atoms: _116  and  _117
REMARK   54  A    between atoms: _116  and  _119
REMARK   55  A    between atoms: _119  and  _120
REMARK   56  A    between atoms: _122  and  _124
REMARK   57  A    between atoms: _124  and  _125
REMARK   58  A    between atoms: _124  and  _127
REMARK   59  A    between atoms: _127  and  _128
REMARK   60  A    between atoms: _132  and  ZN_424
REMARK   61  A    between atoms: _133  and  _135
REMARK   62  A    between atoms: _135  and  _136
REMARK   63  A    between atoms: _138  and  _140
REMARK   64  A    between atoms: _140  and  _141
REMARK   65  A    between atoms: _144  and  _146
REMARK   66  A    between atoms: _146  and  _147
REMARK   67  A    between atoms: _146  and  _149
REMARK   68  A    between atoms: _149  and  _150
REMARK   69  A    between atoms: _156  and  _158
REMARK   70  A    between atoms: _158  and  _159
REMARK   71  A    between atoms: _158  and  _161
REMARK   72  A    between atoms: _161  and  _162
REMARK   73  A    between atoms: _162  and  _163
REMARK   74  A    between atoms: _163  and  _164
REMARK   75  A    between atoms: _164  and  _165
REMARK   76  A    between atoms: _169  and  _171
REMARK   77  A    between atoms: _171  and  _172
REMARK   78  A    between atoms: _171  and  _174
REMARK   79  A    between atoms: _177  and  _179
REMARK   80  A    between atoms: _179  and  _180
REMARK   81  A    between atoms: _179  and  _182
REMARK   82  A    between atoms: _182  and  _183
REMARK   83  A    between atoms: _186  and  _188
REMARK   84  A    between atoms: _188  and  _189
REMARK   85  A    between atoms: _188  and  _191
REMARK   86  A    between atoms: _191  and  _192
REMARK   87  A    between atoms: _193  and  ZN_424
REMARK   88  A    between atoms: _197  and  _199
REMARK   89  A    between atoms: _199  and  _200
REMARK   90  A    between atoms: _202  and  _204
REMARK   91  A    between atoms: _204  and  _205
REMARK   92  A    between atoms: _208  and  _210
REMARK   93  A    between atoms: _210  and  _211
REMARK   94  A    between atoms: _210  and  _213
REMARK   95  A    between atoms: _213  and  _214
REMARK   96  A    between atoms: _216  and  _218
REMARK   97  A    between atoms: _218  and  _219
REMARK   98  A    between atoms: _222  and  _224
REMARK   99  A    between atoms: _224  and  _225
REMARK  100  A    between atoms: _224  and  _227
REMARK  101  A    between atoms: _227  and  _228
REMARK  102  A    between atoms: _231  and  _233
REMARK  103  A    between atoms: _233  and  _234
REMARK  104  A    between atoms: _233  and  _236
REMARK  105  A    between atoms: _236  and  _237
REMARK  106  A    between atoms: _237  and  _238
REMARK  107  A    between atoms: _238  and  _239
REMARK  108  A    between atoms: _239  and  _240
REMARK  109  A    between atoms: _244  and  _246
REMARK  110  A    between atoms: _246  and  _247
REMARK  111  A    between atoms: _249  and  _251
REMARK  112  A    between atoms: _251  and  _252
REMARK  113  A    between atoms: _251  and  _254
REMARK  114  A    between atoms: _257  and  _259
REMARK  115  A    between atoms: _259  and  _260
REMARK  116  A    between atoms: _259  and  _262
REMARK  117  A    between atoms: _262  and  _263
REMARK  118  A    between atoms: _266  and  _268
REMARK  119  A    between atoms: _268  and  _269
REMARK  120  A    between atoms: _268  and  _271
REMARK  121  A    between atoms: _271  and  _272
REMARK  122  A    between atoms: _272  and  _273
REMARK  123  A    between atoms: _273  and  _274
REMARK  124  A    between atoms: _274  and  _275
REMARK  125  A    between atoms: _279  and  _281
REMARK  126  A    between atoms: _281  and  _282
REMARK  127  A    between atoms: _281  and  _284
REMARK  128  A    between atoms: _287  and  _289
REMARK  129  A    between atoms: _289  and  _290
REMARK  130  A    between atoms: _289  and  _292
REMARK  131  A    between atoms: _292  and  _293
REMARK  132  A    between atoms: _298  and  _300
REMARK  133  A    between atoms: _300  and  _301
REMARK  134  A    between atoms: _300  and  _303
REMARK  135  A    between atoms: _303  and  _304
REMARK  136  A    between atoms: _307  and  _309
REMARK  137  A    between atoms: _309  and  _310
REMARK  138  A    between atoms: _309  and  _312
REMARK  139  A    between atoms: _312  and  _313
REMARK  140  A    between atoms: _316  and  _318
REMARK  141  A    between atoms: _318  and  _319
REMARK  142  A    between atoms: _318  and  _321
REMARK  143  A    between atoms: _321  and  _322
REMARK  144  A    between atoms: _325  and  _327
REMARK  145  A    between atoms: _327  and  _328
REMARK  146  A    between atoms: _327  and  _330
REMARK  147  A    between atoms: _330  and  _331
REMARK  148  A    between atoms: _334  and  _336
REMARK  149  A    between atoms: _336  and  _337
REMARK  150  A    between atoms: _336  and  _339
REMARK  151  A    between atoms: _339  and  _340
REMARK  152  A    between atoms: _343  and  _345
REMARK  153  A    between atoms: _345  and  _346
REMARK  154  A    between atoms: _345  and  _348
REMARK  155  A    between atoms: _348  and  _349
REMARK  156  A    between atoms: _349  and  _350
REMARK  157  A    between atoms: _350  and  _351
REMARK  158  A    between atoms: _360  and  _362
REMARK  159  A    between atoms: _362  and  _363
REMARK  160  A    between atoms: _362  and  _365
REMARK  161  A    between atoms: _365  and  _366
REMARK  162  A    between atoms: _369  and  _371
REMARK  163  A    between atoms: _371  and  _372
REMARK  164  A    between atoms: _371  and  _374
REMARK  165  A    between atoms: _374  and  _375
REMARK  166  A    between atoms: _375  and  _376
REMARK  167  A    between atoms: _376  and  _377
REMARK  168  A    between atoms: _386  and  _388
REMARK  169  A    between atoms: _388  and  _389
REMARK  170  A    between atoms: _388  and  _391
REMARK  171  A    between atoms: _391  and  _392
REMARK  172  A    between atoms: _398  and  _400
REMARK  173  A    between atoms: _400  and  _401
REMARK  174  A    between atoms: _400  and  _403
REMARK  175  A    between atoms: _403  and  _404
REMARK  176  A    between atoms: _407  and  _409
REMARK  177  A    between atoms: _409  and  _410
REMARK  178  A    between atoms: _409  and  _412
REMARK  179  A    between atoms: _412  and  _413
REMARK  180  A    between atoms: _413  and  _414
REMARK  181  A    between atoms: _414  and  _415
REMARK                            x       y       z     vdW  Elec       q    Type
REMARK                         _______ _______ _______ _____ _____    ______ ____
ROOT
ATOM      1  O   HOH     1      -3.759 -11.271 -38.399  0.00  0.00    +0.000 OA
ENDROOT
TORSDOF 0
REMARK  Name = ../refined-set-2016/3n9r/3n9r_pocket.pdb
REMARK  181 active torsions:
REMARK  status: ('A' for Active; 'I' for Inactive)
REMARK    1  A    between atoms: _1  and  _3
REMARK    2  A    between atoms: _3  and  _4
REMARK    3  A    between atoms: _7  and  _9
REMARK    4  A    between atoms: _9  and  _10
REMARK    5  A    between atoms: _9  and  _12
REMARK    6  A    between atoms: _12  and  _13
REMARK    7  A    between atoms: _18  and  _20
REMARK    8  A    between atoms: _20  and  _21
REMARK    9  A    between atoms: _20  and  _23
REMARK   10  A    between atoms: _23  and  _24
REMARK   11  A    between atoms: _24  and  _25
REMARK   12  A    between atoms: _30  and  _32
REMARK   13  A    between atoms: _32  and  _33
REMARK   14  A    between atoms: _32  and  _35
REMARK   15  A    between atoms: _35  and  _36
REMARK   16  A    between atoms: _38  and  _40
REMARK   17  A    between atoms: _40  and  _41
REMARK   18  A    between atoms: _40  and  _43
REMARK   19  A    between atoms: _43  and  _44
REMARK   20  A    between atoms: _47  and  _49
REMARK   21  A    between atoms: _49  and  _50
REMARK   22  A    between atoms: _49  and  _52
REMARK   23  A    between atoms: _52  and  _53
REMARK   24  A    between atoms: _57  and  ZN_424
REMARK   25  A    between atoms: _58  and  _60
REMARK   26  A    between atoms: _60  and  _61
REMARK   27  A    between atoms: _60  and  _63
REMARK   28  A    between atoms: _63  and  _64
REMARK   29  A    between atoms: _64  and  _65
REMARK   30  A    between atoms: _67  and  _69
REMARK   31  A    between atoms: _69  and  _70
REMARK   32  A    between atoms: _69  and  _72
REMARK   33  A    between atoms: _72  and  _73
REMARK   34  A    between atoms: _76  and  _78
REMARK   35  A    between atoms: _78  and  _79
REMARK   36  A    between atoms: _78  and  _81
REMARK   37  A    between atoms: _81  and  _82
REMARK   38  A    between atoms: _82  and  _83
REMARK   39  A    between atoms: _86  and  _88
REMARK   40  A    between atoms: _88  and  _89
REMARK   41  A    between atoms: _88  and  _91
REMARK   42  A    between atoms: _91  and  _92
REMARK   43  A    between atoms: _92  and  _93
REMARK   44  A    between atoms: _96  and  _98
REMARK   45  A    between atoms: _98  and  _99
REMARK   46  A    between atoms: _98  and  _101
REMARK   47  A    between atoms: _101  and  _102
REMARK   48  A    between atoms: _105  and  _107
REMARK   49  A    between atoms: _107  and  _108
REMARK   50  A    between atoms: _107  and  _110
REMARK   51  A    between atoms: _110  and  _111
REMARK   52  A    between atoms: _114  and  _116
REMARK   53  A    between atoms: _116  and  _117
REMARK   54  A    between atoms: _116  and  _119
REMARK   55  A    between atoms: _119  and  _120
REMARK   56  A    between atoms: _122  and  _124
REMARK   57  A    between atoms: _124  and  _125
REMARK   58  A    between atoms: _124  and  _127
REMARK   59  A    between atoms: _127  and  _128
REMARK   60  A    between atoms: _132  and  ZN_424
REMARK   61  A    between atoms: _133  and  _135
REMARK   62  A    between atoms: _135  and  _136
REMARK   63  A    between atoms: _138  and  _140
REMARK   64  A    between atoms: _140  and  _141
REMARK   65  A    between atoms: _144  and  _146
REMARK   66  A    between atoms: _146  and  _147
REMARK   67  A    between atoms: _146  and  _149
REMARK   68  A    between atoms: _149  and  _150
REMARK   69  A    between atoms: _156  and  _158
REMARK   70  A    between atoms: _158  and  _159
REMARK   71  A    between atoms: _158  and  _161
REMARK   72  A    between atoms: _161  and  _162
REMARK   73  A    between atoms: _162  and  _163
REMARK   74  A    between atoms: _163  and  _164
REMARK   75  A    between atoms: _164  and  _165
REMARK   76  A    between atoms: _169  and  _171
REMARK   77  A    between atoms: _171  and  _172
REMARK   78  A    between atoms: _171  and  _174
REMARK   79  A    between atoms: _177  and  _179
REMARK   80  A    between atoms: _179  and  _180
REMARK   81  A    between atoms: _179  and  _182
REMARK   82  A    between atoms: _182  and  _183
REMARK   83  A    between atoms: _186  and  _188
REMARK   84  A    between atoms: _188  and  _189
REMARK   85  A    between atoms: _188  and  _191
REMARK   86  A    between atoms: _191  and  _192
REMARK   87  A    between atoms: _193  and  ZN_424
REMARK   88  A    between atoms: _197  and  _199
REMARK   89  A    between atoms: _199  and  _200
REMARK   90  A    between atoms: _202  and  _204
REMARK   91  A    between atoms: _204  and  _205
REMARK   92  A    between atoms: _208  and  _210
REMARK   93  A    between atoms: _210  and  _211
REMARK   94  A    between atoms: _210  and  _213
REMARK   95  A    between atoms: _213  and  _214
REMARK   96  A    between atoms: _216  and  _218
REMARK   97  A    between atoms: _218  and  _219
REMARK   98  A    between atoms: _222  and  _224
REMARK   99  A    between atoms: _224  and  _225
REMARK  100  A    between atoms: _224  and  _227
REMARK  101  A    between atoms: _227  and  _228
REMARK  102  A    between atoms: _231  and  _233
REMARK  103  A    between atoms: _233  and  _234
REMARK  104  A    between atoms: _233  and  _236
REMARK  105  A    between atoms: _236  and  _237
REMARK  106  A    between atoms: _237  and  _238
REMARK  107  A    between atoms: _238  and  _239
REMARK  108  A    between atoms: _239  and  _240
REMARK  109  A    between atoms: _244  and  _246
REMARK  110  A    between atoms: _246  and  _247
REMARK  111  A    between atoms: _249  and  _251
REMARK  112  A    between atoms: _251  and  _252
REMARK  113  A    between atoms: _251  and  _254
REMARK  114  A    between atoms: _257  and  _259
REMARK  115  A    between atoms: _259  and  _260
REMARK  116  A    between atoms: _259  and  _262
REMARK  117  A    between atoms: _262  and  _263
REMARK  118  A    between atoms: _266  and  _268
REMARK  119  A    between atoms: _268  and  _269
REMARK  120  A    between atoms: _268  and  _271
REMARK  121  A    between atoms: _271  and  _272
REMARK  122  A    between atoms: _272  and  _273
REMARK  123  A    between atoms: _273  and  _274
REMARK  124  A    between atoms: _274  and  _275
REMARK  125  A    between atoms: _279  and  _281
REMARK  126  A    between atoms: _281  and  _282
REMARK  127  A    between atoms: _281  and  _284
REMARK  128  A    between atoms: _287  and  _289
REMARK  129  A    between atoms: _289  and  _290
REMARK  130  A    between atoms: _289  and  _292
REMARK  131  A    between atoms: _292  and  _293
REMARK  132  A    between atoms: _298  and  _300
REMARK  133  A    between atoms: _300  and  _301
REMARK  134  A    between atoms: _300  and  _303
REMARK  135  A    between atoms: _303  and  _304
REMARK  136  A    between atoms: _307  and  _309
REMARK  137  A    between atoms: _309  and  _310
REMARK  138  A    between atoms: _309  and  _312
REMARK  139  A    between atoms: _312  and  _313
REMARK  140  A    between atoms: _316  and  _318
REMARK  141  A    between atoms: _318  and  _319
REMARK  142  A    between atoms: _318  and  _321
REMARK  143  A    between atoms: _321  and  _322
REMARK  144  A    between atoms: _325  and  _327
REMARK  145  A    between atoms: _327  and  _328
REMARK  146  A    between atoms: _327  and  _330
REMARK  147  A    between atoms: _330  and  _331
REMARK  148  A    between atoms: _334  and  _336
REMARK  149  A    between atoms: _336  and  _337
REMARK  150  A    between atoms: _336  and  _339
REMARK  151  A    between atoms: _339  and  _340
REMARK  152  A    between atoms: _343  and  _345
REMARK  153  A    between atoms: _345  and  _346
REMARK  154  A    between atoms: _345  and  _348
REMARK  155  A    between atoms: _348  and  _349
REMARK  156  A    between atoms: _349  and  _350
REMARK  157  A    between atoms: _350  and  _351
REMARK  158  A    between atoms: _360  and  _362
REMARK  159  A    between atoms: _362  and  _363
REMARK  160  A    between atoms: _362  and  _365
REMARK  161  A    between atoms: _365  and  _366
REMARK  162  A    between atoms: _369  and  _371
REMARK  163  A    between atoms: _371  and  _372
REMARK  164  A    between atoms: _371  and  _374
REMARK  165  A    between atoms: _374  and  _375
REMARK  166  A    between atoms: _375  and  _376
REMARK  167  A    between atoms: _376  and  _377
REMARK  168  A    between atoms: _386  and  _388
REMARK  169  A    between atoms: _388  and  _389
REMARK  170  A    between atoms: _388  and  _391
REMARK  171  A    between atoms: _391  and  _392
REMARK  172  A    between atoms: _398  and  _400
REMARK  173  A    between atoms: _400  and  _401
REMARK  174  A    between atoms: _400  and  _403
REMARK  175  A    between atoms: _403  and  _404
REMARK  176  A    between atoms: _407  and  _409
REMARK  177  A    between atoms: _409  and  _410
REMARK  178  A    between atoms: _409  and  _412
REMARK  179  A    between atoms: _412  and  _413
REMARK  180  A    between atoms: _413  and  _414
REMARK  181  A    between atoms: _414  and  _415
REMARK                            x       y       z     vdW  Elec       q    Type
REMARK                         _______ _______ _______ _____ _____    ______ ____
ROOT
ATOM      1  O   HOH     1      -1.925  -8.684 -39.435  0.00  0.00    +0.000 OA
ENDROOT
TORSDOF 0
REMARK  Name = ../refined-set-2016/3n9r/3n9r_pocket.pdb
REMARK  181 active torsions:
REMARK  status: ('A' for Active; 'I' for Inactive)
REMARK    1  A    between atoms: _1  and  _3
REMARK    2  A    between atoms: _3  and  _4
REMARK    3  A    between atoms: _7  and  _9
REMARK    4  A    between atoms: _9  and  _10
REMARK    5  A    between atoms: _9  and  _12
REMARK    6  A    between atoms: _12  and  _13
REMARK    7  A    between atoms: _18  and  _20
REMARK    8  A    between atoms: _20  and  _21
REMARK    9  A    between atoms: _20  and  _23
REMARK   10  A    between atoms: _23  and  _24
REMARK   11  A    between atoms: _24  and  _25
REMARK   12  A    between atoms: _30  and  _32
REMARK   13  A    between atoms: _32  and  _33
REMARK   14  A    between atoms: _32  and  _35
REMARK   15  A    between atoms: _35  and  _36
REMARK   16  A    between atoms: _38  and  _40
REMARK   17  A    between atoms: _40  and  _41
REMARK   18  A    between atoms: _40  and  _43
REMARK   19  A    between atoms: _43  and  _44
REMARK   20  A    between atoms: _47  and  _49
REMARK   21  A    between atoms: _49  and  _50
REMARK   22  A    between atoms: _49  and  _52
REMARK   23  A    between atoms: _52  and  _53
REMARK   24  A    between atoms: _57  and  ZN_424
REMARK   25  A    between atoms: _58  and  _60
REMARK   26  A    between atoms: _60  and  _61
REMARK   27  A    between atoms: _60  and  _63
REMARK   28  A    between atoms: _63  and  _64
REMARK   29  A    between atoms: _64  and  _65
REMARK   30  A    between atoms: _67  and  _69
REMARK   31  A    between atoms: _69  and  _70
REMARK   32  A    between atoms: _69  and  _72
REMARK   33  A    between atoms: _72  and  _73
REMARK   34  A    between atoms: _76  and  _78
REMARK   35  A    between atoms: _78  and  _79
REMARK   36  A    between atoms: _78  and  _81
REMARK   37  A    between atoms: _81  and  _82
REMARK   38  A    between atoms: _82  and  _83
REMARK   39  A    between atoms: _86  and  _88
REMARK   40  A    between atoms: _88  and  _89
REMARK   41  A    between atoms: _88  and  _91
REMARK   42  A    between atoms: _91  and  _92
REMARK   43  A    between atoms: _92  and  _93
REMARK   44  A    between atoms: _96  and  _98
REMARK   45  A    between atoms: _98  and  _99
REMARK   46  A    between atoms: _98  and  _101
REMARK   47  A    between atoms: _101  and  _102
REMARK   48  A    between atoms: _105  and  _107
REMARK   49  A    between atoms: _107  and  _108
REMARK   50  A    between atoms: _107  and  _110
REMARK   51  A    between atoms: _110  and  _111
REMARK   52  A    between atoms: _114  and  _116
REMARK   53  A    between atoms: _116  and  _117
REMARK   54  A    between atoms: _116  and  _119
REMARK   55  A    between atoms: _119  and  _120
REMARK   56  A    between atoms: _122  and  _124
REMARK   57  A    between atoms: _124  and  _125
REMARK   58  A    between atoms: _124  and  _127
REMARK   59  A    between atoms: _127  and  _128
REMARK   60  A    between atoms: _132  and  ZN_424
REMARK   61  A    between atoms: _133  and  _135
REMARK   62  A    between atoms: _135  and  _136
REMARK   63  A    between atoms: _138  and  _140
REMARK   64  A    between atoms: _140  and  _141
REMARK   65  A    between atoms: _144  and  _146
REMARK   66  A    between atoms: _146  and  _147
REMARK   67  A    between atoms: _146  and  _149
REMARK   68  A    between atoms: _149  and  _150
REMARK   69  A    between atoms: _156  and  _158
REMARK   70  A    between atoms: _158  and  _159
REMARK   71  A    between atoms: _158  and  _161
REMARK   72  A    between atoms: _161  and  _162
REMARK   73  A    between atoms: _162  and  _163
REMARK   74  A    between atoms: _163  and  _164
REMARK   75  A    between atoms: _164  and  _165
REMARK   76  A    between atoms: _169  and  _171
REMARK   77  A    between atoms: _171  and  _172
REMARK   78  A    between atoms: _171  and  _174
REMARK   79  A    between atoms: _177  and  _179
REMARK   80  A    between atoms: _179  and  _180
REMARK   81  A    between atoms: _179  and  _182
REMARK   82  A    between atoms: _182  and  _183
REMARK   83  A    between atoms: _186  and  _188
REMARK   84  A    between atoms: _188  and  _189
REMARK   85  A    between atoms: _188  and  _191
REMARK   86  A    between atoms: _191  and  _192
REMARK   87  A    between atoms: _193  and  ZN_424
REMARK   88  A    between atoms: _197  and  _199
REMARK   89  A    between atoms: _199  and  _200
REMARK   90  A    between atoms: _202  and  _204
REMARK   91  A    between atoms: _204  and  _205
REMARK   92  A    between atoms: _208  and  _210
REMARK   93  A    between atoms: _210  and  _211
REMARK   94  A    between atoms: _210  and  _213
REMARK   95  A    between atoms: _213  and  _214
REMARK   96  A    between atoms: _216  and  _218
REMARK   97  A    between atoms: _218  and  _219
REMARK   98  A    between atoms: _222  and  _224
REMARK   99  A    between atoms: _224  and  _225
REMARK  100  A    between atoms: _224  and  _227
REMARK  101  A    between atoms: _227  and  _228
REMARK  102  A    between atoms: _231  and  _233
REMARK  103  A    between atoms: _233  and  _234
REMARK  104  A    between atoms: _233  and  _236
REMARK  105  A    between atoms: _236  and  _237
REMARK  106  A    between atoms: _237  and  _238
REMARK  107  A    between atoms: _238  and  _239
REMARK  108  A    between atoms: _239  and  _240
REMARK  109  A    between atoms: _244  and  _246
REMARK  110  A    between atoms: _246  and  _247
REMARK  111  A    between atoms: _249  and  _251
REMARK  112  A    between atoms: _251  and  _252
REMARK  113  A    between atoms: _251  and  _254
REMARK  114  A    between atoms: _257  and  _259
REMARK  115  A    between atoms: _259  and  _260
REMARK  116  A    between atoms: _259  and  _262
REMARK  117  A    between atoms: _262  and  _263
REMARK  118  A    between atoms: _266  and  _268
REMARK  119  A    between atoms: _268  and  _269
REMARK  120  A    between atoms: _268  and  _271
REMARK  121  A    between atoms: _271  and  _272
REMARK  122  A    between atoms: _272  and  _273
REMARK  123  A    between atoms: _273  and  _274
REMARK  124  A    between atoms: _274  and  _275
REMARK  125  A    between atoms: _279  and  _281
REMARK  126  A    between atoms: _281  and  _282
REMARK  127  A    between atoms: _281  and  _284
REMARK  128  A    between atoms: _287  and  _289
REMARK  129  A    between atoms: _289  and  _290
REMARK  130  A    between atoms: _289  and  _292
REMARK  131  A    between atoms: _292  and  _293
REMARK  132  A    between atoms: _298  and  _300
REMARK  133  A    between atoms: _300  and  _301
REMARK  134  A    between atoms: _300  and  _303
REMARK  135  A    between atoms: _303  and  _304
REMARK  136  A    between atoms: _307  and  _309
REMARK  137  A    between atoms: _309  and  _310
REMARK  138  A    between atoms: _309  and  _312
REMARK  139  A    between atoms: _312  and  _313
REMARK  140  A    between atoms: _316  and  _318
REMARK  141  A    between atoms: _318  and  _319
REMARK  142  A    between atoms: _318  and  _321
REMARK  143  A    between atoms: _321  and  _322
REMARK  144  A    between atoms: _325  and  _327
REMARK  145  A    between atoms: _327  and  _328
REMARK  146  A    between atoms: _327  and  _330
REMARK  147  A    between atoms: _330  and  _331
REMARK  148  A    between atoms: _334  and  _336
REMARK  149  A    between atoms: _336  and  _337
REMARK  150  A    between atoms: _336  and  _339
REMARK  151  A    between atoms: _339  and  _340
REMARK  152  A    between atoms: _343  and  _345
REMARK  153  A    between atoms: _345  and  _346
REMARK  154  A    between atoms: _345  and  _348
REMARK  155  A    between atoms: _348  and  _349
REMARK  156  A    between atoms: _349  and  _350
REMARK  157  A    between atoms: _350  and  _351
REMARK  158  A    between atoms: _360  and  _362
REMARK  159  A    between atoms: _362  and  _363
REMARK  160  A    between atoms: _362  and  _365
REMARK  161  A    between atoms: _365  and  _366
REMARK  162  A    between atoms: _369  and  _371
REMARK  163  A    between atoms: _371  and  _372
REMARK  164  A    between atoms: _371  and  _374
REMARK  165  A    between atoms: _374  and  _375
REMARK  166  A    between atoms: _375  and  _376
REMARK  167  A    between atoms: _376  and  _377
REMARK  168  A    between atoms: _386  and  _388
REMARK  169  A    between atoms: _388  and  _389
REMARK  170  A    between atoms: _388  and  _391
REMARK  171  A    between atoms: _391  and  _392
REMARK  172  A    between atoms: _398  and  _400
REMARK  173  A    between atoms: _400  and  _401
REMARK  174  A    between atoms: _400  and  _403
REMARK  175  A    between atoms: _403  and  _404
REMARK  176  A    between atoms: _407  and  _409
REMARK  177  A    between atoms: _409  and  _410
REMARK  178  A    between atoms: _409  and  _412
REMARK  179  A    between atoms: _412  and  _413
REMARK  180  A    between atoms: _413  and  _414
REMARK  181  A    between atoms: _414  and  _415
REMARK                            x       y       z     vdW  Elec       q    Type
REMARK                         _______ _______ _______ _____ _____    ______ ____
ROOT
ATOM      1  O   HOH     1      -6.557  -0.940 -38.570  0.00  0.00    +0.000 OA
ENDROOT
TORSDOF 0
REMARK  Name = ../refined-set-2016/3n9r/3n9r_pocket.pdb
REMARK  181 active torsions:
REMARK  status: ('A' for Active; 'I' for Inactive)
REMARK    1  A    between atoms: _1  and  _3
REMARK    2  A    between atoms: _3  and  _4
REMARK    3  A    between atoms: _7  and  _9
REMARK    4  A    between atoms: _9  and  _10
REMARK    5  A    between atoms: _9  and  _12
REMARK    6  A    between atoms: _12  and  _13
REMARK    7  A    between atoms: _18  and  _20
REMARK    8  A    between atoms: _20  and  _21
REMARK    9  A    between atoms: _20  and  _23
REMARK   10  A    between atoms: _23  and  _24
REMARK   11  A    between atoms: _24  and  _25
REMARK   12  A    between atoms: _30  and  _32
REMARK   13  A    between atoms: _32  and  _33
REMARK   14  A    between atoms: _32  and  _35
REMARK   15  A    between atoms: _35  and  _36
REMARK   16  A    between atoms: _38  and  _40
REMARK   17  A    between atoms: _40  and  _41
REMARK   18  A    between atoms: _40  and  _43
REMARK   19  A    between atoms: _43  and  _44
REMARK   20  A    between atoms: _47  and  _49
REMARK   21  A    between atoms: _49  and  _50
REMARK   22  A    between atoms: _49  and  _52
REMARK   23  A    between atoms: _52  and  _53
REMARK   24  A    between atoms: _57  and  ZN_424
REMARK   25  A    between atoms: _58  and  _60
REMARK   26  A    between atoms: _60  and  _61
REMARK   27  A    between atoms: _60  and  _63
REMARK   28  A    between atoms: _63  and  _64
REMARK   29  A    between atoms: _64  and  _65
REMARK   30  A    between atoms: _67  and  _69
REMARK   31  A    between atoms: _69  and  _70
REMARK   32  A    between atoms: _69  and  _72
REMARK   33  A    between atoms: _72  and  _73
REMARK   34  A    between atoms: _76  and  _78
REMARK   35  A    between atoms: _78  and  _79
REMARK   36  A    between atoms: _78  and  _81
REMARK   37  A    between atoms: _81  and  _82
REMARK   38  A    between atoms: _82  and  _83
REMARK   39  A    between atoms: _86  and  _88
REMARK   40  A    between atoms: _88  and  _89
REMARK   41  A    between atoms: _88  and  _91
REMARK   42  A    between atoms: _91  and  _92
REMARK   43  A    between atoms: _92  and  _93
REMARK   44  A    between atoms: _96  and  _98
REMARK   45  A    between atoms: _98  and  _99
REMARK   46  A    between atoms: _98  and  _101
REMARK   47  A    between atoms: _101  and  _102
REMARK   48  A    between atoms: _105  and  _107
REMARK   49  A    between atoms: _107  and  _108
REMARK   50  A    between atoms: _107  and  _110
REMARK   51  A    between atoms: _110  and  _111
REMARK   52  A    between atoms: _114  and  _116
REMARK   53  A    between atoms: _116  and  _117
REMARK   54  A    between atoms: _116  and  _119
REMARK   55  A    between atoms: _119  and  _120
REMARK   56  A    between atoms: _122  and  _124
REMARK   57  A    between atoms: _124  and  _125
REMARK   58  A    between atoms: _124  and  _127
REMARK   59  A    between atoms: _127  and  _128
REMARK   60  A    between atoms: _132  and  ZN_424
REMARK   61  A    between atoms: _133  and  _135
REMARK   62  A    between atoms: _135  and  _136
REMARK   63  A    between atoms: _138  and  _140
REMARK   64  A    between atoms: _140  and  _141
REMARK   65  A    between atoms: _144  and  _146
REMARK   66  A    between atoms: _146  and  _147
REMARK   67  A    between atoms: _146  and  _149
REMARK   68  A    between atoms: _149  and  _150
REMARK   69  A    between atoms: _156  and  _158
REMARK   70  A    between atoms: _158  and  _159
REMARK   71  A    between atoms: _158  and  _161
REMARK   72  A    between atoms: _161  and  _162
REMARK   73  A    between atoms: _162  and  _163
REMARK   74  A    between atoms: _163  and  _164
REMARK   75  A    between atoms: _164  and  _165
REMARK   76  A    between atoms: _169  and  _171
REMARK   77  A    between atoms: _171  and  _172
REMARK   78  A    between atoms: _171  and  _174
REMARK   79  A    between atoms: _177  and  _179
REMARK   80  A    between atoms: _179  and  _180
REMARK   81  A    between atoms: _179  and  _182
REMARK   82  A    between atoms: _182  and  _183
REMARK   83  A    between atoms: _186  and  _188
REMARK   84  A    between atoms: _188  and  _189
REMARK   85  A    between atoms: _188  and  _191
REMARK   86  A    between atoms: _191  and  _192
REMARK   87  A    between atoms: _193  and  ZN_424
REMARK   88  A    between atoms: _197  and  _199
REMARK   89  A    between atoms: _199  and  _200
REMARK   90  A    between atoms: _202  and  _204
REMARK   91  A    between atoms: _204  and  _205
REMARK   92  A    between atoms: _208  and  _210
REMARK   93  A    between atoms: _210  and  _211
REMARK   94  A    between atoms: _210  and  _213
REMARK   95  A    between atoms: _213  and  _214
REMARK   96  A    between atoms: _216  and  _218
REMARK   97  A    between atoms: _218  and  _219
REMARK   98  A    between atoms: _222  and  _224
REMARK   99  A    between atoms: _224  and  _225
REMARK  100  A    between atoms: _224  and  _227
REMARK  101  A    between atoms: _227  and  _228
REMARK  102  A    between atoms: _231  and  _233
REMARK  103  A    between atoms: _233  and  _234
REMARK  104  A    between atoms: _233  and  _236
REMARK  105  A    between atoms: _236  and  _237
REMARK  106  A    between atoms: _237  and  _238
REMARK  107  A    between atoms: _238  and  _239
REMARK  108  A    between atoms: _239  and  _240
REMARK  109  A    between atoms: _244  and  _246
REMARK  110  A    between atoms: _246  and  _247
REMARK  111  A    between atoms: _249  and  _251
REMARK  112  A    between atoms: _251  and  _252
REMARK  113  A    between atoms: _251  and  _254
REMARK  114  A    between atoms: _257  and  _259
REMARK  115  A    between atoms: _259  and  _260
REMARK  116  A    between atoms: _259  and  _262
REMARK  117  A    between atoms: _262  and  _263
REMARK  118  A    between atoms: _266  and  _268
REMARK  119  A    between atoms: _268  and  _269
REMARK  120  A    between atoms: _268  and  _271
REMARK  121  A    between atoms: _271  and  _272
REMARK  122  A    between atoms: _272  and  _273
REMARK  123  A    between atoms: _273  and  _274
REMARK  124  A    between atoms: _274  and  _275
REMARK  125  A    between atoms: _279  and  _281
REMARK  126  A    between atoms: _281  and  _282
REMARK  127  A    between atoms: _281  and  _284
REMARK  128  A    between atoms: _287  and  _289
REMARK  129  A    between atoms: _289  and  _290
REMARK  130  A    between atoms: _289  and  _292
REMARK  131  A    between atoms: _292  and  _293
REMARK  132  A    between atoms: _298  and  _300
REMARK  133  A    between atoms: _300  and  _301
REMARK  134  A    between atoms: _300  and  _303
REMARK  135  A    between atoms: _303  and  _304
REMARK  136  A    between atoms: _307  and  _309
REMARK  137  A    between atoms: _309  and  _310
REMARK  138  A    between atoms: _309  and  _312
REMARK  139  A    between atoms: _312  and  _313
REMARK  140  A    between atoms: _316  and  _318
REMARK  141  A    between atoms: _318  and  _319
REMARK  142  A    between atoms: _318  and  _321
REMARK  143  A    between atoms: _321  and  _322
REMARK  144  A    between atoms: _325  and  _327
REMARK  145  A    between atoms: _327  and  _328
REMARK  146  A    between atoms: _327  and  _330
REMARK  147  A    between atoms: _330  and  _331
REMARK  148  A    between atoms: _334  and  _336
REMARK  149  A    between atoms: _336  and  _337
REMARK  150  A    between atoms: _336  and  _339
REMARK  151  A    between atoms: _339  and  _340
REMARK  152  A    between atoms: _343  and  _345
REMARK  153  A    between atoms: _345  and  _346
REMARK  154  A    between atoms: _345  and  _348
REMARK  155  A    between atoms: _348  and  _349
REMARK  156  A    between atoms: _349  and  _350
REMARK  157  A    between atoms: _350  and  _351
REMARK  158  A    between atoms: _360  and  _362
REMARK  159  A    between atoms: _362  and  _363
REMARK  160  A    between atoms: _362  and  _365
REMARK  161  A    between atoms: _365  and  _366
REMARK  162  A    between atoms: _369  and  _371
REMARK  163  A    between atoms: _371  and  _372
REMARK  164  A    between atoms: _371  and  _374
REMARK  165  A    between atoms: _374  and  _375
REMARK  166  A    between atoms: _375  and  _376
REMARK  167  A    between atoms: _376  and  _377
REMARK  168  A    between atoms: _386  and  _388
REMARK  169  A    between atoms: _388  and  _389
REMARK  170  A    between atoms: _388  and  _391
REMARK  171  A    between atoms: _391  and  _392
REMARK  172  A    between atoms: _398  and  _400
REMARK  173  A    between atoms: _400  and  _401
REMARK  174  A    between atoms: _400  and  _403
REMARK  175  A    between atoms: _403  and  _404
REMARK  176  A    between atoms: _407  and  _409
REMARK  177  A    between atoms: _409  and  _410
REMARK  178  A    between atoms: _409  and  _412
REMARK  179  A    between atoms: _412  and  _413
REMARK  180  A    between atoms: _413  and  _414
REMARK  181  A    between atoms: _414  and  _415
REMARK                            x       y       z     vdW  Elec       q    Type
REMARK                         _______ _______ _______ _____ _____    ______ ____
ROOT
ATOM      1  O   HOH     1      -9.165 -14.740 -45.349  0.00  0.00    +0.000 OA
ENDROOT
TORSDOF 0
REMARK  Name = ../refined-set-2016/3n9r/3n9r_pocket.pdb
REMARK  181 active torsions:
REMARK  status: ('A' for Active; 'I' for Inactive)
REMARK    1  A    between atoms: _1  and  _3
REMARK    2  A    between atoms: _3  and  _4
REMARK    3  A    between atoms: _7  and  _9
REMARK    4  A    between atoms: _9  and  _10
REMARK    5  A    between atoms: _9  and  _12
REMARK    6  A    between atoms: _12  and  _13
REMARK    7  A    between atoms: _18  and  _20
REMARK    8  A    between atoms: _20  and  _21
REMARK    9  A    between atoms: _20  and  _23
REMARK   10  A    between atoms: _23  and  _24
REMARK   11  A    between atoms: _24  and  _25
REMARK   12  A    between atoms: _30  and  _32
REMARK   13  A    between atoms: _32  and  _33
REMARK   14  A    between atoms: _32  and  _35
REMARK   15  A    between atoms: _35  and  _36
REMARK   16  A    between atoms: _38  and  _40
REMARK   17  A    between atoms: _40  and  _41
REMARK   18  A    between atoms: _40  and  _43
REMARK   19  A    between atoms: _43  and  _44
REMARK   20  A    between atoms: _47  and  _49
REMARK   21  A    between atoms: _49  and  _50
REMARK   22  A    between atoms: _49  and  _52
REMARK   23  A    between atoms: _52  and  _53
REMARK   24  A    between atoms: _57  and  ZN_424
REMARK   25  A    between atoms: _58  and  _60
REMARK   26  A    between atoms: _60  and  _61
REMARK   27  A    between atoms: _60  and  _63
REMARK   28  A    between atoms: _63  and  _64
REMARK   29  A    between atoms: _64  and  _65
REMARK   30  A    between atoms: _67  and  _69
REMARK   31  A    between atoms: _69  and  _70
REMARK   32  A    between atoms: _69  and  _72
REMARK   33  A    between atoms: _72  and  _73
REMARK   34  A    between atoms: _76  and  _78
REMARK   35  A    between atoms: _78  and  _79
REMARK   36  A    between atoms: _78  and  _81
REMARK   37  A    between atoms: _81  and  _82
REMARK   38  A    between atoms: _82  and  _83
REMARK   39  A    between atoms: _86  and  _88
REMARK   40  A    between atoms: _88  and  _89
REMARK   41  A    between atoms: _88  and  _91
REMARK   42  A    between atoms: _91  and  _92
REMARK   43  A    between atoms: _92  and  _93
REMARK   44  A    between atoms: _96  and  _98
REMARK   45  A    between atoms: _98  and  _99
REMARK   46  A    between atoms: _98  and  _101
REMARK   47  A    between atoms: _101  and  _102
REMARK   48  A    between atoms: _105  and  _107
REMARK   49  A    between atoms: _107  and  _108
REMARK   50  A    between atoms: _107  and  _110
REMARK   51  A    between atoms: _110  and  _111
REMARK   52  A    between atoms: _114  and  _116
REMARK   53  A    between atoms: _116  and  _117
REMARK   54  A    between atoms: _116  and  _119
REMARK   55  A    between atoms: _119  and  _120
REMARK   56  A    between atoms: _122  and  _124
REMARK   57  A    between atoms: _124  and  _125
REMARK   58  A    between atoms: _124  and  _127
REMARK   59  A    between atoms: _127  and  _128
REMARK   60  A    between atoms: _132  and  ZN_424
REMARK   61  A    between atoms: _133  and  _135
REMARK   62  A    between atoms: _135  and  _136
REMARK   63  A    between atoms: _138  and  _140
REMARK   64  A    between atoms: _140  and  _141
REMARK   65  A    between atoms: _144  and  _146
REMARK   66  A    between atoms: _146  and  _147
REMARK   67  A    between atoms: _146  and  _149
REMARK   68  A    between atoms: _149  and  _150
REMARK   69  A    between atoms: _156  and  _158
REMARK   70  A    between atoms: _158  and  _159
REMARK   71  A    between atoms: _158  and  _161
REMARK   72  A    between atoms: _161  and  _162
REMARK   73  A    between atoms: _162  and  _163
REMARK   74  A    between atoms: _163  and  _164
REMARK   75  A    between atoms: _164  and  _165
REMARK   76  A    between atoms: _169  and  _171
REMARK   77  A    between atoms: _171  and  _172
REMARK   78  A    between atoms: _171  and  _174
REMARK   79  A    between atoms: _177  and  _179
REMARK   80  A    between atoms: _179  and  _180
REMARK   81  A    between atoms: _179  and  _182
REMARK   82  A    between atoms: _182  and  _183
REMARK   83  A    between atoms: _186  and  _188
REMARK   84  A    between atoms: _188  and  _189
REMARK   85  A    between atoms: _188  and  _191
REMARK   86  A    between atoms: _191  and  _192
REMARK   87  A    between atoms: _193  and  ZN_424
REMARK   88  A    between atoms: _197  and  _199
REMARK   89  A    between atoms: _199  and  _200
REMARK   90  A    between atoms: _202  and  _204
REMARK   91  A    between atoms: _204  and  _205
REMARK   92  A    between atoms: _208  and  _210
REMARK   93  A    between atoms: _210  and  _211
REMARK   94  A    between atoms: _210  and  _213
REMARK   95  A    between atoms: _213  and  _214
REMARK   96  A    between atoms: _216  and  _218
REMARK   97  A    between atoms: _218  and  _219
REMARK   98  A    between atoms: _222  and  _224
REMARK   99  A    between atoms: _224  and  _225
REMARK  100  A    between atoms: _224  and  _227
REMARK  101  A    between atoms: _227  and  _228
REMARK  102  A    between atoms: _231  and  _233
REMARK  103  A    between atoms: _233  and  _234
REMARK  104  A    between atoms: _233  and  _236
REMARK  105  A    between atoms: _236  and  _237
REMARK  106  A    between atoms: _237  and  _238
REMARK  107  A    between atoms: _238  and  _239
REMARK  108  A    between atoms: _239  and  _240
REMARK  109  A    between atoms: _244  and  _246
REMARK  110  A    between atoms: _246  and  _247
REMARK  111  A    between atoms: _249  and  _251
REMARK  112  A    between atoms: _251  and  _252
REMARK  113  A    between atoms: _251  and  _254
REMARK  114  A    between atoms: _257  and  _259
REMARK  115  A    between atoms: _259  and  _260
REMARK  116  A    between atoms: _259  and  _262
REMARK  117  A    between atoms: _262  and  _263
REMARK  118  A    between atoms: _266  and  _268
REMARK  119  A    between atoms: _268  and  _269
REMARK  120  A    between atoms: _268  and  _271
REMARK  121  A    between atoms: _271  and  _272
REMARK  122  A    between atoms: _272  and  _273
REMARK  123  A    between atoms: _273  and  _274
REMARK  124  A    between atoms: _274  and  _275
REMARK  125  A    between atoms: _279  and  _281
REMARK  126  A    between atoms: _281  and  _282
REMARK  127  A    between atoms: _281  and  _284
REMARK  128  A    between atoms: _287  and  _289
REMARK  129  A    between atoms: _289  and  _290
REMARK  130  A    between atoms: _289  and  _292
REMARK  131  A    between atoms: _292  and  _293
REMARK  132  A    between atoms: _298  and  _300
REMARK  133  A    between atoms: _300  and  _301
REMARK  134  A    between atoms: _300  and  _303
REMARK  135  A    between atoms: _303  and  _304
REMARK  136  A    between atoms: _307  and  _309
REMARK  137  A    between atoms: _309  and  _310
REMARK  138  A    between atoms: _309  and  _312
REMARK  139  A    between atoms: _312  and  _313
REMARK  140  A    between atoms: _316  and  _318
REMARK  141  A    between atoms: _318  and  _319
REMARK  142  A    between atoms: _318  and  _321
REMARK  143  A    between atoms: _321  and  _322
REMARK  144  A    between atoms: _325  and  _327
REMARK  145  A    between atoms: _327  and  _328
REMARK  146  A    between atoms: _327  and  _330
REMARK  147  A    between atoms: _330  and  _331
REMARK  148  A    between atoms: _334  and  _336
REMARK  149  A    between atoms: _336  and  _337
REMARK  150  A    between atoms: _336  and  _339
REMARK  151  A    between atoms: _339  and  _340
REMARK  152  A    between atoms: _343  and  _345
REMARK  153  A    between atoms: _345  and  _346
REMARK  154  A    between atoms: _345  and  _348
REMARK  155  A    between atoms: _348  and  _349
REMARK  156  A    between atoms: _349  and  _350
REMARK  157  A    between atoms: _350  and  _351
REMARK  158  A    between atoms: _360  and  _362
REMARK  159  A    between atoms: _362  and  _363
REMARK  160  A    between atoms: _362  and  _365
REMARK  161  A    between atoms: _365  and  _366
REMARK  162  A    between atoms: _369  and  _371
REMARK  163  A    between atoms: _371  and  _372
REMARK  164  A    between atoms: _371  and  _374
REMARK  165  A    between atoms: _374  and  _375
REMARK  166  A    between atoms: _375  and  _376
REMARK  167  A    between atoms: _376  and  _377
REMARK  168  A    between atoms: _386  and  _388
REMARK  169  A    between atoms: _388  and  _389
REMARK  170  A    between atoms: _388  and  _391
REMARK  171  A    between atoms: _391  and  _392
REMARK  172  A    between atoms: _398  and  _400
REMARK  173  A    between atoms: _400  and  _401
REMARK  174  A    between atoms: _400  and  _403
REMARK  175  A    between atoms: _403  and  _404
REMARK  176  A    between atoms: _407  and  _409
REMARK  177  A    between atoms: _409  and  _410
REMARK  178  A    between atoms: _409  and  _412
REMARK  179  A    between atoms: _412  and  _413
REMARK  180  A    between atoms: _413  and  _414
REMARK  181  A    between atoms: _414  and  _415
REMARK                            x       y       z     vdW  Elec       q    Type
REMARK                         _______ _______ _______ _____ _____    ______ ____
ROOT
ATOM      1  O   HOH     1     -11.237  -7.436 -39.827  0.00  0.00    +0.000 OA
ENDROOT
TORSDOF 0
REMARK  Name = ../refined-set-2016/3n9r/3n9r_pocket.pdb
REMARK  181 active torsions:
REMARK  status: ('A' for Active; 'I' for Inactive)
REMARK    1  A    between atoms: _1  and  _3
REMARK    2  A    between atoms: _3  and  _4
REMARK    3  A    between atoms: _7  and  _9
REMARK    4  A    between atoms: _9  and  _10
REMARK    5  A    between atoms: _9  and  _12
REMARK    6  A    between atoms: _12  and  _13
REMARK    7  A    between atoms: _18  and  _20
REMARK    8  A    between atoms: _20  and  _21
REMARK    9  A    between atoms: _20  and  _23
REMARK   10  A    between atoms: _23  and  _24
REMARK   11  A    between atoms: _24  and  _25
REMARK   12  A    between atoms: _30  and  _32
REMARK   13  A    between atoms: _32  and  _33
REMARK   14  A    between atoms: _32  and  _35
REMARK   15  A    between atoms: _35  and  _36
REMARK   16  A    between atoms: _38  and  _40
REMARK   17  A    between atoms: _40  and  _41
REMARK   18  A    between atoms: _40  and  _43
REMARK   19  A    between atoms: _43  and  _44
REMARK   20  A    between atoms: _47  and  _49
REMARK   21  A    between atoms: _49  and  _50
REMARK   22  A    between atoms: _49  and  _52
REMARK   23  A    between atoms: _52  and  _53
REMARK   24  A    between atoms: _57  and  ZN_424
REMARK   25  A    between atoms: _58  and  _60
REMARK   26  A    between atoms: _60  and  _61
REMARK   27  A    between atoms: _60  and  _63
REMARK   28  A    between atoms: _63  and  _64
REMARK   29  A    between atoms: _64  and  _65
REMARK   30  A    between atoms: _67  and  _69
REMARK   31  A    between atoms: _69  and  _70
REMARK   32  A    between atoms: _69  and  _72
REMARK   33  A    between atoms: _72  and  _73
REMARK   34  A    between atoms: _76  and  _78
REMARK   35  A    between atoms: _78  and  _79
REMARK   36  A    between atoms: _78  and  _81
REMARK   37  A    between atoms: _81  and  _82
REMARK   38  A    between atoms: _82  and  _83
REMARK   39  A    between atoms: _86  and  _88
REMARK   40  A    between atoms: _88  and  _89
REMARK   41  A    between atoms: _88  and  _91
REMARK   42  A    between atoms: _91  and  _92
REMARK   43  A    between atoms: _92  and  _93
REMARK   44  A    between atoms: _96  and  _98
REMARK   45  A    between atoms: _98  and  _99
REMARK   46  A    between atoms: _98  and  _101
REMARK   47  A    between atoms: _101  and  _102
REMARK   48  A    between atoms: _105  and  _107
REMARK   49  A    between atoms: _107  and  _108
REMARK   50  A    between atoms: _107  and  _110
REMARK   51  A    between atoms: _110  and  _111
REMARK   52  A    between atoms: _114  and  _116
REMARK   53  A    between atoms: _116  and  _117
REMARK   54  A    between atoms: _116  and  _119
REMARK   55  A    between atoms: _119  and  _120
REMARK   56  A    between atoms: _122  and  _124
REMARK   57  A    between atoms: _124  and  _125
REMARK   58  A    between atoms: _124  and  _127
REMARK   59  A    between atoms: _127  and  _128
REMARK   60  A    between atoms: _132  and  ZN_424
REMARK   61  A    between atoms: _133  and  _135
REMARK   62  A    between atoms: _135  and  _136
REMARK   63  A    between atoms: _138  and  _140
REMARK   64  A    between atoms: _140  and  _141
REMARK   65  A    between atoms: _144  and  _146
REMARK   66  A    between atoms: _146  and  _147
REMARK   67  A    between atoms: _146  and  _149
REMARK   68  A    between atoms: _149  and  _150
REMARK   69  A    between atoms: _156  and  _158
REMARK   70  A    between atoms: _158  and  _159
REMARK   71  A    between atoms: _158  and  _161
REMARK   72  A    between atoms: _161  and  _162
REMARK   73  A    between atoms: _162  and  _163
REMARK   74  A    between atoms: _163  and  _164
REMARK   75  A    between atoms: _164  and  _165
REMARK   76  A    between atoms: _169  and  _171
REMARK   77  A    between atoms: _171  and  _172
REMARK   78  A    between atoms: _171  and  _174
REMARK   79  A    between atoms: _177  and  _179
REMARK   80  A    between atoms: _179  and  _180
REMARK   81  A    between atoms: _179  and  _182
REMARK   82  A    between atoms: _182  and  _183
REMARK   83  A    between atoms: _186  and  _188
REMARK   84  A    between atoms: _188  and  _189
REMARK   85  A    between atoms: _188  and  _191
REMARK   86  A    between atoms: _191  and  _192
REMARK   87  A    between atoms: _193  and  ZN_424
REMARK   88  A    between atoms: _197  and  _199
REMARK   89  A    between atoms: _199  and  _200
REMARK   90  A    between atoms: _202  and  _204
REMARK   91  A    between atoms: _204  and  _205
REMARK   92  A    between atoms: _208  and  _210
REMARK   93  A    between atoms: _210  and  _211
REMARK   94  A    between atoms: _210  and  _213
REMARK   95  A    between atoms: _213  and  _214
REMARK   96  A    between atoms: _216  and  _218
REMARK   97  A    between atoms: _218  and  _219
REMARK   98  A    between atoms: _222  and  _224
REMARK   99  A    between atoms: _224  and  _225
REMARK  100  A    between atoms: _224  and  _227
REMARK  101  A    between atoms: _227  and  _228
REMARK  102  A    between atoms: _231  and  _233
REMARK  103  A    between atoms: _233  and  _234
REMARK  104  A    between atoms: _233  and  _236
REMARK  105  A    between atoms: _236  and  _237
REMARK  106  A    between atoms: _237  and  _238
REMARK  107  A    between atoms: _238  and  _239
REMARK  108  A    between atoms: _239  and  _240
REMARK  109  A    between atoms: _244  and  _246
REMARK  110  A    between atoms: _246  and  _247
REMARK  111  A    between atoms: _249  and  _251
REMARK  112  A    between atoms: _251  and  _252
REMARK  113  A    between atoms: _251  and  _254
REMARK  114  A    between atoms: _257  and  _259
REMARK  115  A    between atoms: _259  and  _260
REMARK  116  A    between atoms: _259  and  _262
REMARK  117  A    between atoms: _262  and  _263
REMARK  118  A    between atoms: _266  and  _268
REMARK  119  A    between atoms: _268  and  _269
REMARK  120  A    between atoms: _268  and  _271
REMARK  121  A    between atoms: _271  and  _272
REMARK  122  A    between atoms: _272  and  _273
REMARK  123  A    between atoms: _273  and  _274
REMARK  124  A    between atoms: _274  and  _275
REMARK  125  A    between atoms: _279  and  _281
REMARK  126  A    between atoms: _281  and  _282
REMARK  127  A    between atoms: _281  and  _284
REMARK  128  A    between atoms: _287  and  _289
REMARK  129  A    between atoms: _289  and  _290
REMARK  130  A    between atoms: _289  and  _292
REMARK  131  A    between atoms: _292  and  _293
REMARK  132  A    between atoms: _298  and  _300
REMARK  133  A    between atoms: _300  and  _301
REMARK  134  A    between atoms: _300  and  _303
REMARK  135  A    between atoms: _303  and  _304
REMARK  136  A    between atoms: _307  and  _309
REMARK  137  A    between atoms: _309  and  _310
REMARK  138  A    between atoms: _309  and  _312
REMARK  139  A    between atoms: _312  and  _313
REMARK  140  A    between atoms: _316  and  _318
REMARK  141  A    between atoms: _318  and  _319
REMARK  142  A    between atoms: _318  and  _321
REMARK  143  A    between atoms: _321  and  _322
REMARK  144  A    between atoms: _325  and  _327
REMARK  145  A    between atoms: _327  and  _328
REMARK  146  A    between atoms: _327  and  _330
REMARK  147  A    between atoms: _330  and  _331
REMARK  148  A    between atoms: _334  and  _336
REMARK  149  A    between atoms: _336  and  _337
REMARK  150  A    between atoms: _336  and  _339
REMARK  151  A    between atoms: _339  and  _340
REMARK  152  A    between atoms: _343  and  _345
REMARK  153  A    between atoms: _345  and  _346
REMARK  154  A    between atoms: _345  and  _348
REMARK  155  A    between atoms: _348  and  _349
REMARK  156  A    between atoms: _349  and  _350
REMARK  157  A    between atoms: _350  and  _351
REMARK  158  A    between atoms: _360  and  _362
REMARK  159  A    between atoms: _362  and  _363
REMARK  160  A    between atoms: _362  and  _365
REMARK  161  A    between atoms: _365  and  _366
REMARK  162  A    between atoms: _369  and  _371
REMARK  163  A    between atoms: _371  and  _372
REMARK  164  A    between atoms: _371  and  _374
REMARK  165  A    between atoms: _374  and  _375
REMARK  166  A    between atoms: _375  and  _376
REMARK  167  A    between atoms: _376  and  _377
REMARK  168  A    between atoms: _386  and  _388
REMARK  169  A    between atoms: _388  and  _389
REMARK  170  A    between atoms: _388  and  _391
REMARK  171  A    between atoms: _391  and  _392
REMARK  172  A    between atoms: _398  and  _400
REMARK  173  A    between atoms: _400  and  _401
REMARK  174  A    between atoms: _400  and  _403
REMARK  175  A    between atoms: _403  and  _404
REMARK  176  A    between atoms: _407  and  _409
REMARK  177  A    between atoms: _409  and  _410
REMARK  178  A    between atoms: _409  and  _412
REMARK  179  A    between atoms: _412  and  _413
REMARK  180  A    between atoms: _413  and  _414
REMARK  181  A    between atoms: _414  and  _415
REMARK                            x       y       z     vdW  Elec       q    Type
REMARK                         _______ _______ _______ _____ _____    ______ ____
ROOT
ATOM      1  O   HOH     1      -4.756  -0.130 -45.776  0.00  0.00    +0.000 OA
ENDROOT
TORSDOF 0
REMARK  Name = ../refined-set-2016/3n9r/3n9r_pocket.pdb
REMARK  181 active torsions:
REMARK  status: ('A' for Active; 'I' for Inactive)
REMARK    1  A    between atoms: _1  and  _3
REMARK    2  A    between atoms: _3  and  _4
REMARK    3  A    between atoms: _7  and  _9
REMARK    4  A    between atoms: _9  and  _10
REMARK    5  A    between atoms: _9  and  _12
REMARK    6  A    between atoms: _12  and  _13
REMARK    7  A    between atoms: _18  and  _20
REMARK    8  A    between atoms: _20  and  _21
REMARK    9  A    between atoms: _20  and  _23
REMARK   10  A    between atoms: _23  and  _24
REMARK   11  A    between atoms: _24  and  _25
REMARK   12  A    between atoms: _30  and  _32
REMARK   13  A    between atoms: _32  and  _33
REMARK   14  A    between atoms: _32  and  _35
REMARK   15  A    between atoms: _35  and  _36
REMARK   16  A    between atoms: _38  and  _40
REMARK   17  A    between atoms: _40  and  _41
REMARK   18  A    between atoms: _40  and  _43
REMARK   19  A    between atoms: _43  and  _44
REMARK   20  A    between atoms: _47  and  _49
REMARK   21  A    between atoms: _49  and  _50
REMARK   22  A    between atoms: _49  and  _52
REMARK   23  A    between atoms: _52  and  _53
REMARK   24  A    between atoms: _57  and  ZN_424
REMARK   25  A    between atoms: _58  and  _60
REMARK   26  A    between atoms: _60  and  _61
REMARK   27  A    between atoms: _60  and  _63
REMARK   28  A    between atoms: _63  and  _64
REMARK   29  A    between atoms: _64  and  _65
REMARK   30  A    between atoms: _67  and  _69
REMARK   31  A    between atoms: _69  and  _70
REMARK   32  A    between atoms: _69  and  _72
REMARK   33  A    between atoms: _72  and  _73
REMARK   34  A    between atoms: _76  and  _78
REMARK   35  A    between atoms: _78  and  _79
REMARK   36  A    between atoms: _78  and  _81
REMARK   37  A    between atoms: _81  and  _82
REMARK   38  A    between atoms: _82  and  _83
REMARK   39  A    between atoms: _86  and  _88
REMARK   40  A    between atoms: _88  and  _89
REMARK   41  A    between atoms: _88  and  _91
REMARK   42  A    between atoms: _91  and  _92
REMARK   43  A    between atoms: _92  and  _93
REMARK   44  A    between atoms: _96  and  _98
REMARK   45  A    between atoms: _98  and  _99
REMARK   46  A    between atoms: _98  and  _101
REMARK   47  A    between atoms: _101  and  _102
REMARK   48  A    between atoms: _105  and  _107
REMARK   49  A    between atoms: _107  and  _108
REMARK   50  A    between atoms: _107  and  _110
REMARK   51  A    between atoms: _110  and  _111
REMARK   52  A    between atoms: _114  and  _116
REMARK   53  A    between atoms: _116  and  _117
REMARK   54  A    between atoms: _116  and  _119
REMARK   55  A    between atoms: _119  and  _120
REMARK   56  A    between atoms: _122  and  _124
REMARK   57  A    between atoms: _124  and  _125
REMARK   58  A    between atoms: _124  and  _127
REMARK   59  A    between atoms: _127  and  _128
REMARK   60  A    between atoms: _132  and  ZN_424
REMARK   61  A    between atoms: _133  and  _135
REMARK   62  A    between atoms: _135  and  _136
REMARK   63  A    between atoms: _138  and  _140
REMARK   64  A    between atoms: _140  and  _141
REMARK   65  A    between atoms: _144  and  _146
REMARK   66  A    between atoms: _146  and  _147
REMARK   67  A    between atoms: _146  and  _149
REMARK   68  A    between atoms: _149  and  _150
REMARK   69  A    between atoms: _156  and  _158
REMARK   70  A    between atoms: _158  and  _159
REMARK   71  A    between atoms: _158  and  _161
REMARK   72  A    between atoms: _161  and  _162
REMARK   73  A    between atoms: _162  and  _163
REMARK   74  A    between atoms: _163  and  _164
REMARK   75  A    between atoms: _164  and  _165
REMARK   76  A    between atoms: _169  and  _171
REMARK   77  A    between atoms: _171  and  _172
REMARK   78  A    between atoms: _171  and  _174
REMARK   79  A    between atoms: _177  and  _179
REMARK   80  A    between atoms: _179  and  _180
REMARK   81  A    between atoms: _179  and  _182
REMARK   82  A    between atoms: _182  and  _183
REMARK   83  A    between atoms: _186  and  _188
REMARK   84  A    between atoms: _188  and  _189
REMARK   85  A    between atoms: _188  and  _191
REMARK   86  A    between atoms: _191  and  _192
REMARK   87  A    between atoms: _193  and  ZN_424
REMARK   88  A    between atoms: _197  and  _199
REMARK   89  A    between atoms: _199  and  _200
REMARK   90  A    between atoms: _202  and  _204
REMARK   91  A    between atoms: _204  and  _205
REMARK   92  A    between atoms: _208  and  _210
REMARK   93  A    between atoms: _210  and  _211
REMARK   94  A    between atoms: _210  and  _213
REMARK   95  A    between atoms: _213  and  _214
REMARK   96  A    between atoms: _216  and  _218
REMARK   97  A    between atoms: _218  and  _219
REMARK   98  A    between atoms: _222  and  _224
REMARK   99  A    between atoms: _224  and  _225
REMARK  100  A    between atoms: _224  and  _227
REMARK  101  A    between atoms: _227  and  _228
REMARK  102  A    between atoms: _231  and  _233
REMARK  103  A    between atoms: _233  and  _234
REMARK  104  A    between atoms: _233  and  _236
REMARK  105  A    between atoms: _236  and  _237
REMARK  106  A    between atoms: _237  and  _238
REMARK  107  A    between atoms: _238  and  _239
REMARK  108  A    between atoms: _239  and  _240
REMARK  109  A    between atoms: _244  and  _246
REMARK  110  A    between atoms: _246  and  _247
REMARK  111  A    between atoms: _249  and  _251
REMARK  112  A    between atoms: _251  and  _252
REMARK  113  A    between atoms: _251  and  _254
REMARK  114  A    between atoms: _257  and  _259
REMARK  115  A    between atoms: _259  and  _260
REMARK  116  A    between atoms: _259  and  _262
REMARK  117  A    between atoms: _262  and  _263
REMARK  118  A    between atoms: _266  and  _268
REMARK  119  A    between atoms: _268  and  _269
REMARK  120  A    between atoms: _268  and  _271
REMARK  121  A    between atoms: _271  and  _272
REMARK  122  A    between atoms: _272  and  _273
REMARK  123  A    between atoms: _273  and  _274
REMARK  124  A    between atoms: _274  and  _275
REMARK  125  A    between atoms: _279  and  _281
REMARK  126  A    between atoms: _281  and  _282
REMARK  127  A    between atoms: _281  and  _284
REMARK  128  A    between atoms: _287  and  _289
REMARK  129  A    between atoms: _289  and  _290
REMARK  130  A    between atoms: _289  and  _292
REMARK  131  A    between atoms: _292  and  _293
REMARK  132  A    between atoms: _298  and  _300
REMARK  133  A    between atoms: _300  and  _301
REMARK  134  A    between atoms: _300  and  _303
REMARK  135  A    between atoms: _303  and  _304
REMARK  136  A    between atoms: _307  and  _309
REMARK  137  A    between atoms: _309  and  _310
REMARK  138  A    between atoms: _309  and  _312
REMARK  139  A    between atoms: _312  and  _313
REMARK  140  A    between atoms: _316  and  _318
REMARK  141  A    between atoms: _318  and  _319
REMARK  142  A    between atoms: _318  and  _321
REMARK  143  A    between atoms: _321  and  _322
REMARK  144  A    between atoms: _325  and  _327
REMARK  145  A    between atoms: _327  and  _328
REMARK  146  A    between atoms: _327  and  _330
REMARK  147  A    between atoms: _330  and  _331
REMARK  148  A    between atoms: _334  and  _336
REMARK  149  A    between atoms: _336  and  _337
REMARK  150  A    between atoms: _336  and  _339
REMARK  151  A    between atoms: _339  and  _340
REMARK  152  A    between atoms: _343  and  _345
REMARK  153  A    between atoms: _345  and  _346
REMARK  154  A    between atoms: _345  and  _348
REMARK  155  A    between atoms: _348  and  _349
REMARK  156  A    between atoms: _349  and  _350
REMARK  157  A    between atoms: _350  and  _351
REMARK  158  A    between atoms: _360  and  _362
REMARK  159  A    between atoms: _362  and  _363
REMARK  160  A    between atoms: _362  and  _365
REMARK  161  A    between atoms: _365  and  _366
REMARK  162  A    between atoms: _369  and  _371
REMARK  163  A    between atoms: _371  and  _372
REMARK  164  A    between atoms: _371  and  _374
REMARK  165  A    between atoms: _374  and  _375
REMARK  166  A    between atoms: _375  and  _376
REMARK  167  A    between atoms: _376  and  _377
REMARK  168  A    between atoms: _386  and  _388
REMARK  169  A    between atoms: _388  and  _389
REMARK  170  A    between atoms: _388  and  _391
REMARK  171  A    between atoms: _391  and  _392
REMARK  172  A    between atoms: _398  and  _400
REMARK  173  A    between atoms: _400  and  _401
REMARK  174  A    between atoms: _400  and  _403
REMARK  175  A    between atoms: _403  and  _404
REMARK  176  A    between atoms: _407  and  _409
REMARK  177  A    between atoms: _409  and  _410
REMARK  178  A    between atoms: _409  and  _412
REMARK  179  A    between atoms: _412  and  _413
REMARK  180  A    between atoms: _413  and  _414
REMARK  181  A    between atoms: _414  and  _415
REMARK                            x       y       z     vdW  Elec       q    Type
REMARK                         _______ _______ _______ _____ _____    ______ ____
ROOT
ATOM      1  O   HOH     1      -6.580 -14.771 -44.873  0.00  0.00    +0.000 OA
ENDROOT
TORSDOF 0
REMARK  Name = ../refined-set-2016/3n9r/3n9r_pocket.pdb
REMARK  181 active torsions:
REMARK  status: ('A' for Active; 'I' for Inactive)
REMARK    1  A    between atoms: _1  and  _3
REMARK    2  A    between atoms: _3  and  _4
REMARK    3  A    between atoms: _7  and  _9
REMARK    4  A    between atoms: _9  and  _10
REMARK    5  A    between atoms: _9  and  _12
REMARK    6  A    between atoms: _12  and  _13
REMARK    7  A    between atoms: _18  and  _20
REMARK    8  A    between atoms: _20  and  _21
REMARK    9  A    between atoms: _20  and  _23
REMARK   10  A    between atoms: _23  and  _24
REMARK   11  A    between atoms: _24  and  _25
REMARK   12  A    between atoms: _30  and  _32
REMARK   13  A    between atoms: _32  and  _33
REMARK   14  A    between atoms: _32  and  _35
REMARK   15  A    between atoms: _35  and  _36
REMARK   16  A    between atoms: _38  and  _40
REMARK   17  A    between atoms: _40  and  _41
REMARK   18  A    between atoms: _40  and  _43
REMARK   19  A    between atoms: _43  and  _44
REMARK   20  A    between atoms: _47  and  _49
REMARK   21  A    between atoms: _49  and  _50
REMARK   22  A    between atoms: _49  and  _52
REMARK   23  A    between atoms: _52  and  _53
REMARK   24  A    between atoms: _57  and  ZN_424
REMARK   25  A    between atoms: _58  and  _60
REMARK   26  A    between atoms: _60  and  _61
REMARK   27  A    between atoms: _60  and  _63
REMARK   28  A    between atoms: _63  and  _64
REMARK   29  A    between atoms: _64  and  _65
REMARK   30  A    between atoms: _67  and  _69
REMARK   31  A    between atoms: _69  and  _70
REMARK   32  A    between atoms: _69  and  _72
REMARK   33  A    between atoms: _72  and  _73
REMARK   34  A    between atoms: _76  and  _78
REMARK   35  A    between atoms: _78  and  _79
REMARK   36  A    between atoms: _78  and  _81
REMARK   37  A    between atoms: _81  and  _82
REMARK   38  A    between atoms: _82  and  _83
REMARK   39  A    between atoms: _86  and  _88
REMARK   40  A    between atoms: _88  and  _89
REMARK   41  A    between atoms: _88  and  _91
REMARK   42  A    between atoms: _91  and  _92
REMARK   43  A    between atoms: _92  and  _93
REMARK   44  A    between atoms: _96  and  _98
REMARK   45  A    between atoms: _98  and  _99
REMARK   46  A    between atoms: _98  and  _101
REMARK   47  A    between atoms: _101  and  _102
REMARK   48  A    between atoms: _105  and  _107
REMARK   49  A    between atoms: _107  and  _108
REMARK   50  A    between atoms: _107  and  _110
REMARK   51  A    between atoms: _110  and  _111
REMARK   52  A    between atoms: _114  and  _116
REMARK   53  A    between atoms: _116  and  _117
REMARK   54  A    between atoms: _116  and  _119
REMARK   55  A    between atoms: _119  and  _120
REMARK   56  A    between atoms: _122  and  _124
REMARK   57  A    between atoms: _124  and  _125
REMARK   58  A    between atoms: _124  and  _127
REMARK   59  A    between atoms: _127  and  _128
REMARK   60  A    between atoms: _132  and  ZN_424
REMARK   61  A    between atoms: _133  and  _135
REMARK   62  A    between atoms: _135  and  _136
REMARK   63  A    between atoms: _138  and  _140
REMARK   64  A    between atoms: _140  and  _141
REMARK   65  A    between atoms: _144  and  _146
REMARK   66  A    between atoms: _146  and  _147
REMARK   67  A    between atoms: _146  and  _149
REMARK   68  A    between atoms: _149  and  _150
REMARK   69  A    between atoms: _156  and  _158
REMARK   70  A    between atoms: _158  and  _159
REMARK   71  A    between atoms: _158  and  _161
REMARK   72  A    between atoms: _161  and  _162
REMARK   73  A    between atoms: _162  and  _163
REMARK   74  A    between atoms: _163  and  _164
REMARK   75  A    between atoms: _164  and  _165
REMARK   76  A    between atoms: _169  and  _171
REMARK   77  A    between atoms: _171  and  _172
REMARK   78  A    between atoms: _171  and  _174
REMARK   79  A    between atoms: _177  and  _179
REMARK   80  A    between atoms: _179  and  _180
REMARK   81  A    between atoms: _179  and  _182
REMARK   82  A    between atoms: _182  and  _183
REMARK   83  A    between atoms: _186  and  _188
REMARK   84  A    between atoms: _188  and  _189
REMARK   85  A    between atoms: _188  and  _191
REMARK   86  A    between atoms: _191  and  _192
REMARK   87  A    between atoms: _193  and  ZN_424
REMARK   88  A    between atoms: _197  and  _199
REMARK   89  A    between atoms: _199  and  _200
REMARK   90  A    between atoms: _202  and  _204
REMARK   91  A    between atoms: _204  and  _205
REMARK   92  A    between atoms: _208  and  _210
REMARK   93  A    between atoms: _210  and  _211
REMARK   94  A    between atoms: _210  and  _213
REMARK   95  A    between atoms: _213  and  _214
REMARK   96  A    between atoms: _216  and  _218
REMARK   97  A    between atoms: _218  and  _219
REMARK   98  A    between atoms: _222  and  _224
REMARK   99  A    between atoms: _224  and  _225
REMARK  100  A    between atoms: _224  and  _227
REMARK  101  A    between atoms: _227  and  _228
REMARK  102  A    between atoms: _231  and  _233
REMARK  103  A    between atoms: _233  and  _234
REMARK  104  A    between atoms: _233  and  _236
REMARK  105  A    between atoms: _236  and  _237
REMARK  106  A    between atoms: _237  and  _238
REMARK  107  A    between atoms: _238  and  _239
REMARK  108  A    between atoms: _239  and  _240
REMARK  109  A    between atoms: _244  and  _246
REMARK  110  A    between atoms: _246  and  _247
REMARK  111  A    between atoms: _249  and  _251
REMARK  112  A    between atoms: _251  and  _252
REMARK  113  A    between atoms: _251  and  _254
REMARK  114  A    between atoms: _257  and  _259
REMARK  115  A    between atoms: _259  and  _260
REMARK  116  A    between atoms: _259  and  _262
REMARK  117  A    between atoms: _262  and  _263
REMARK  118  A    between atoms: _266  and  _268
REMARK  119  A    between atoms: _268  and  _269
REMARK  120  A    between atoms: _268  and  _271
REMARK  121  A    between atoms: _271  and  _272
REMARK  122  A    between atoms: _272  and  _273
REMARK  123  A    between atoms: _273  and  _274
REMARK  124  A    between atoms: _274  and  _275
REMARK  125  A    between atoms: _279  and  _281
REMARK  126  A    between atoms: _281  and  _282
REMARK  127  A    between atoms: _281  and  _284
REMARK  128  A    between atoms: _287  and  _289
REMARK  129  A    between atoms: _289  and  _290
REMARK  130  A    between atoms: _289  and  _292
REMARK  131  A    between atoms: _292  and  _293
REMARK  132  A    between atoms: _298  and  _300
REMARK  133  A    between atoms: _300  and  _301
REMARK  134  A    between atoms: _300  and  _303
REMARK  135  A    between atoms: _303  and  _304
REMARK  136  A    between atoms: _307  and  _309
REMARK  137  A    between atoms: _309  and  _310
REMARK  138  A    between atoms: _309  and  _312
REMARK  139  A    between atoms: _312  and  _313
REMARK  140  A    between atoms: _316  and  _318
REMARK  141  A    between atoms: _318  and  _319
REMARK  142  A    between atoms: _318  and  _321
REMARK  143  A    between atoms: _321  and  _322
REMARK  144  A    between atoms: _325  and  _327
REMARK  145  A    between atoms: _327  and  _328
REMARK  146  A    between atoms: _327  and  _330
REMARK  147  A    between atoms: _330  and  _331
REMARK  148  A    between atoms: _334  and  _336
REMARK  149  A    between atoms: _336  and  _337
REMARK  150  A    between atoms: _336  and  _339
REMARK  151  A    between atoms: _339  and  _340
REMARK  152  A    between atoms: _343  and  _345
REMARK  153  A    between atoms: _345  and  _346
REMARK  154  A    between atoms: _345  and  _348
REMARK  155  A    between atoms: _348  and  _349
REMARK  156  A    between atoms: _349  and  _350
REMARK  157  A    between atoms: _350  and  _351
REMARK  158  A    between atoms: _360  and  _362
REMARK  159  A    between atoms: _362  and  _363
REMARK  160  A    between atoms: _362  and  _365
REMARK  161  A    between atoms: _365  and  _366
REMARK  162  A    between atoms: _369  and  _371
REMARK  163  A    between atoms: _371  and  _372
REMARK  164  A    between atoms: _371  and  _374
REMARK  165  A    between atoms: _374  and  _375
REMARK  166  A    between atoms: _375  and  _376
REMARK  167  A    between atoms: _376  and  _377
REMARK  168  A    between atoms: _386  and  _388
REMARK  169  A    between atoms: _388  and  _389
REMARK  170  A    between atoms: _388  and  _391
REMARK  171  A    between atoms: _391  and  _392
REMARK  172  A    between atoms: _398  and  _400
REMARK  173  A    between atoms: _400  and  _401
REMARK  174  A    between atoms: _400  and  _403
REMARK  175  A    between atoms: _403  and  _404
REMARK  176  A    between atoms: _407  and  _409
REMARK  177  A    between atoms: _409  and  _410
REMARK  178  A    between atoms: _409  and  _412
REMARK  179  A    between atoms: _412  and  _413
REMARK  180  A    between atoms: _413  and  _414
REMARK  181  A    between atoms: _414  and  _415
REMARK                            x       y       z     vdW  Elec       q    Type
REMARK                         _______ _______ _______ _____ _____    ______ ____
ROOT
ATOM      1  O   HOH     1      -4.976  -9.660 -40.324  0.00  0.00    +0.000 OA
ENDROOT
TORSDOF 0
REMARK  Name = ../refined-set-2016/3n9r/3n9r_pocket.pdb
REMARK  181 active torsions:
REMARK  status: ('A' for Active; 'I' for Inactive)
REMARK    1  A    between atoms: _1  and  _3
REMARK    2  A    between atoms: _3  and  _4
REMARK    3  A    between atoms: _7  and  _9
REMARK    4  A    between atoms: _9  and  _10
REMARK    5  A    between atoms: _9  and  _12
REMARK    6  A    between atoms: _12  and  _13
REMARK    7  A    between atoms: _18  and  _20
REMARK    8  A    between atoms: _20  and  _21
REMARK    9  A    between atoms: _20  and  _23
REMARK   10  A    between atoms: _23  and  _24
REMARK   11  A    between atoms: _24  and  _25
REMARK   12  A    between atoms: _30  and  _32
REMARK   13  A    between atoms: _32  and  _33
REMARK   14  A    between atoms: _32  and  _35
REMARK   15  A    between atoms: _35  and  _36
REMARK   16  A    between atoms: _38  and  _40
REMARK   17  A    between atoms: _40  and  _41
REMARK   18  A    between atoms: _40  and  _43
REMARK   19  A    between atoms: _43  and  _44
REMARK   20  A    between atoms: _47  and  _49
REMARK   21  A    between atoms: _49  and  _50
REMARK   22  A    between atoms: _49  and  _52
REMARK   23  A    between atoms: _52  and  _53
REMARK   24  A    between atoms: _57  and  ZN_424
REMARK   25  A    between atoms: _58  and  _60
REMARK   26  A    between atoms: _60  and  _61
REMARK   27  A    between atoms: _60  and  _63
REMARK   28  A    between atoms: _63  and  _64
REMARK   29  A    between atoms: _64  and  _65
REMARK   30  A    between atoms: _67  and  _69
REMARK   31  A    between atoms: _69  and  _70
REMARK   32  A    between atoms: _69  and  _72
REMARK   33  A    between atoms: _72  and  _73
REMARK   34  A    between atoms: _76  and  _78
REMARK   35  A    between atoms: _78  and  _79
REMARK   36  A    between atoms: _78  and  _81
REMARK   37  A    between atoms: _81  and  _82
REMARK   38  A    between atoms: _82  and  _83
REMARK   39  A    between atoms: _86  and  _88
REMARK   40  A    between atoms: _88  and  _89
REMARK   41  A    between atoms: _88  and  _91
REMARK   42  A    between atoms: _91  and  _92
REMARK   43  A    between atoms: _92  and  _93
REMARK   44  A    between atoms: _96  and  _98
REMARK   45  A    between atoms: _98  and  _99
REMARK   46  A    between atoms: _98  and  _101
REMARK   47  A    between atoms: _101  and  _102
REMARK   48  A    between atoms: _105  and  _107
REMARK   49  A    between atoms: _107  and  _108
REMARK   50  A    between atoms: _107  and  _110
REMARK   51  A    between atoms: _110  and  _111
REMARK   52  A    between atoms: _114  and  _116
REMARK   53  A    between atoms: _116  and  _117
REMARK   54  A    between atoms: _116  and  _119
REMARK   55  A    between atoms: _119  and  _120
REMARK   56  A    between atoms: _122  and  _124
REMARK   57  A    between atoms: _124  and  _125
REMARK   58  A    between atoms: _124  and  _127
REMARK   59  A    between atoms: _127  and  _128
REMARK   60  A    between atoms: _132  and  ZN_424
REMARK   61  A    between atoms: _133  and  _135
REMARK   62  A    between atoms: _135  and  _136
REMARK   63  A    between atoms: _138  and  _140
REMARK   64  A    between atoms: _140  and  _141
REMARK   65  A    between atoms: _144  and  _146
REMARK   66  A    between atoms: _146  and  _147
REMARK   67  A    between atoms: _146  and  _149
REMARK   68  A    between atoms: _149  and  _150
REMARK   69  A    between atoms: _156  and  _158
REMARK   70  A    between atoms: _158  and  _159
REMARK   71  A    between atoms: _158  and  _161
REMARK   72  A    between atoms: _161  and  _162
REMARK   73  A    between atoms: _162  and  _163
REMARK   74  A    between atoms: _163  and  _164
REMARK   75  A    between atoms: _164  and  _165
REMARK   76  A    between atoms: _169  and  _171
REMARK   77  A    between atoms: _171  and  _172
REMARK   78  A    between atoms: _171  and  _174
REMARK   79  A    between atoms: _177  and  _179
REMARK   80  A    between atoms: _179  and  _180
REMARK   81  A    between atoms: _179  and  _182
REMARK   82  A    between atoms: _182  and  _183
REMARK   83  A    between atoms: _186  and  _188
REMARK   84  A    between atoms: _188  and  _189
REMARK   85  A    between atoms: _188  and  _191
REMARK   86  A    between atoms: _191  and  _192
REMARK   87  A    between atoms: _193  and  ZN_424
REMARK   88  A    between atoms: _197  and  _199
REMARK   89  A    between atoms: _199  and  _200
REMARK   90  A    between atoms: _202  and  _204
REMARK   91  A    between atoms: _204  and  _205
REMARK   92  A    between atoms: _208  and  _210
REMARK   93  A    between atoms: _210  and  _211
REMARK   94  A    between atoms: _210  and  _213
REMARK   95  A    between atoms: _213  and  _214
REMARK   96  A    between atoms: _216  and  _218
REMARK   97  A    between atoms: _218  and  _219
REMARK   98  A    between atoms: _222  and  _224
REMARK   99  A    between atoms: _224  and  _225
REMARK  100  A    between atoms: _224  and  _227
REMARK  101  A    between atoms: _227  and  _228
REMARK  102  A    between atoms: _231  and  _233
REMARK  103  A    between atoms: _233  and  _234
REMARK  104  A    between atoms: _233  and  _236
REMARK  105  A    between atoms: _236  and  _237
REMARK  106  A    between atoms: _237  and  _238
REMARK  107  A    between atoms: _238  and  _239
REMARK  108  A    between atoms: _239  and  _240
REMARK  109  A    between atoms: _244  and  _246
REMARK  110  A    between atoms: _246  and  _247
REMARK  111  A    between atoms: _249  and  _251
REMARK  112  A    between atoms: _251  and  _252
REMARK  113  A    between atoms: _251  and  _254
REMARK  114  A    between atoms: _257  and  _259
REMARK  115  A    between atoms: _259  and  _260
REMARK  116  A    between atoms: _259  and  _262
REMARK  117  A    between atoms: _262  and  _263
REMARK  118  A    between atoms: _266  and  _268
REMARK  119  A    between atoms: _268  and  _269
REMARK  120  A    between atoms: _268  and  _271
REMARK  121  A    between atoms: _271  and  _272
REMARK  122  A    between atoms: _272  and  _273
REMARK  123  A    between atoms: _273  and  _274
REMARK  124  A    between atoms: _274  and  _275
REMARK  125  A    between atoms: _279  and  _281
REMARK  126  A    between atoms: _281  and  _282
REMARK  127  A    between atoms: _281  and  _284
REMARK  128  A    between atoms: _287  and  _289
REMARK  129  A    between atoms: _289  and  _290
REMARK  130  A    between atoms: _289  and  _292
REMARK  131  A    between atoms: _292  and  _293
REMARK  132  A    between atoms: _298  and  _300
REMARK  133  A    between atoms: _300  and  _301
REMARK  134  A    between atoms: _300  and  _303
REMARK  135  A    between atoms: _303  and  _304
REMARK  136  A    between atoms: _307  and  _309
REMARK  137  A    between atoms: _309  and  _310
REMARK  138  A    between atoms: _309  and  _312
REMARK  139  A    between atoms: _312  and  _313
REMARK  140  A    between atoms: _316  and  _318
REMARK  141  A    between atoms: _318  and  _319
REMARK  142  A    between atoms: _318  and  _321
REMARK  143  A    between atoms: _321  and  _322
REMARK  144  A    between atoms: _325  and  _327
REMARK  145  A    between atoms: _327  and  _328
REMARK  146  A    between atoms: _327  and  _330
REMARK  147  A    between atoms: _330  and  _331
REMARK  148  A    between atoms: _334  and  _336
REMARK  149  A    between atoms: _336  and  _337
REMARK  150  A    between atoms: _336  and  _339
REMARK  151  A    between atoms: _339  and  _340
REMARK  152  A    between atoms: _343  and  _345
REMARK  153  A    between atoms: _345  and  _346
REMARK  154  A    between atoms: _345  and  _348
REMARK  155  A    between atoms: _348  and  _349
REMARK  156  A    between atoms: _349  and  _350
REMARK  157  A    between atoms: _350  and  _351
REMARK  158  A    between atoms: _360  and  _362
REMARK  159  A    between atoms: _362  and  _363
REMARK  160  A    between atoms: _362  and  _365
REMARK  161  A    between atoms: _365  and  _366
REMARK  162  A    between atoms: _369  and  _371
REMARK  163  A    between atoms: _371  and  _372
REMARK  164  A    between atoms: _371  and  _374
REMARK  165  A    between atoms: _374  and  _375
REMARK  166  A    between atoms: _375  and  _376
REMARK  167  A    between atoms: _376  and  _377
REMARK  168  A    between atoms: _386  and  _388
REMARK  169  A    between atoms: _388  and  _389
REMARK  170  A    between atoms: _388  and  _391
REMARK  171  A    between atoms: _391  and  _392
REMARK  172  A    between atoms: _398  and  _400
REMARK  173  A    between atoms: _400  and  _401
REMARK  174  A    between atoms: _400  and  _403
REMARK  175  A    between atoms: _403  and  _404
REMARK  176  A    between atoms: _407  and  _409
REMARK  177  A    between atoms: _409  and  _410
REMARK  178  A    between atoms: _409  and  _412
REMARK  179  A    between atoms: _412  and  _413
REMARK  180  A    between atoms: _413  and  _414
REMARK  181  A    between atoms: _414  and  _415
REMARK                            x       y       z     vdW  Elec       q    Type
REMARK                         _______ _______ _______ _____ _____    ______ ____
ROOT
ATOM      1  O   HOH     1      -3.357  -2.337 -46.687  0.00  0.00    +0.000 OA
ENDROOT
TORSDOF 0
REMARK  Name = ../refined-set-2016/3n9r/3n9r_pocket.pdb
REMARK  181 active torsions:
REMARK  status: ('A' for Active; 'I' for Inactive)
REMARK    1  A    between atoms: _1  and  _3
REMARK    2  A    between atoms: _3  and  _4
REMARK    3  A    between atoms: _7  and  _9
REMARK    4  A    between atoms: _9  and  _10
REMARK    5  A    between atoms: _9  and  _12
REMARK    6  A    between atoms: _12  and  _13
REMARK    7  A    between atoms: _18  and  _20
REMARK    8  A    between atoms: _20  and  _21
REMARK    9  A    between atoms: _20  and  _23
REMARK   10  A    between atoms: _23  and  _24
REMARK   11  A    between atoms: _24  and  _25
REMARK   12  A    between atoms: _30  and  _32
REMARK   13  A    between atoms: _32  and  _33
REMARK   14  A    between atoms: _32  and  _35
REMARK   15  A    between atoms: _35  and  _36
REMARK   16  A    between atoms: _38  and  _40
REMARK   17  A    between atoms: _40  and  _41
REMARK   18  A    between atoms: _40  and  _43
REMARK   19  A    between atoms: _43  and  _44
REMARK   20  A    between atoms: _47  and  _49
REMARK   21  A    between atoms: _49  and  _50
REMARK   22  A    between atoms: _49  and  _52
REMARK   23  A    between atoms: _52  and  _53
REMARK   24  A    between atoms: _57  and  ZN_424
REMARK   25  A    between atoms: _58  and  _60
REMARK   26  A    between atoms: _60  and  _61
REMARK   27  A    between atoms: _60  and  _63
REMARK   28  A    between atoms: _63  and  _64
REMARK   29  A    between atoms: _64  and  _65
REMARK   30  A    between atoms: _67  and  _69
REMARK   31  A    between atoms: _69  and  _70
REMARK   32  A    between atoms: _69  and  _72
REMARK   33  A    between atoms: _72  and  _73
REMARK   34  A    between atoms: _76  and  _78
REMARK   35  A    between atoms: _78  and  _79
REMARK   36  A    between atoms: _78  and  _81
REMARK   37  A    between atoms: _81  and  _82
REMARK   38  A    between atoms: _82  and  _83
REMARK   39  A    between atoms: _86  and  _88
REMARK   40  A    between atoms: _88  and  _89
REMARK   41  A    between atoms: _88  and  _91
REMARK   42  A    between atoms: _91  and  _92
REMARK   43  A    between atoms: _92  and  _93
REMARK   44  A    between atoms: _96  and  _98
REMARK   45  A    between atoms: _98  and  _99
REMARK   46  A    between atoms: _98  and  _101
REMARK   47  A    between atoms: _101  and  _102
REMARK   48  A    between atoms: _105  and  _107
REMARK   49  A    between atoms: _107  and  _108
REMARK   50  A    between atoms: _107  and  _110
REMARK   51  A    between atoms: _110  and  _111
REMARK   52  A    between atoms: _114  and  _116
REMARK   53  A    between atoms: _116  and  _117
REMARK   54  A    between atoms: _116  and  _119
REMARK   55  A    between atoms: _119  and  _120
REMARK   56  A    between atoms: _122  and  _124
REMARK   57  A    between atoms: _124  and  _125
REMARK   58  A    between atoms: _124  and  _127
REMARK   59  A    between atoms: _127  and  _128
REMARK   60  A    between atoms: _132  and  ZN_424
REMARK   61  A    between atoms: _133  and  _135
REMARK   62  A    between atoms: _135  and  _136
REMARK   63  A    between atoms: _138  and  _140
REMARK   64  A    between atoms: _140  and  _141
REMARK   65  A    between atoms: _144  and  _146
REMARK   66  A    between atoms: _146  and  _147
REMARK   67  A    between atoms: _146  and  _149
REMARK   68  A    between atoms: _149  and  _150
REMARK   69  A    between atoms: _156  and  _158
REMARK   70  A    between atoms: _158  and  _159
REMARK   71  A    between atoms: _158  and  _161
REMARK   72  A    between atoms: _161  and  _162
REMARK   73  A    between atoms: _162  and  _163
REMARK   74  A    between atoms: _163  and  _164
REMARK   75  A    between atoms: _164  and  _165
REMARK   76  A    between atoms: _169  and  _171
REMARK   77  A    between atoms: _171  and  _172
REMARK   78  A    between atoms: _171  and  _174
REMARK   79  A    between atoms: _177  and  _179
REMARK   80  A    between atoms: _179  and  _180
REMARK   81  A    between atoms: _179  and  _182
REMARK   82  A    between atoms: _182  and  _183
REMARK   83  A    between atoms: _186  and  _188
REMARK   84  A    between atoms: _188  and  _189
REMARK   85  A    between atoms: _188  and  _191
REMARK   86  A    between atoms: _191  and  _192
REMARK   87  A    between atoms: _193  and  ZN_424
REMARK   88  A    between atoms: _197  and  _199
REMARK   89  A    between atoms: _199  and  _200
REMARK   90  A    between atoms: _202  and  _204
REMARK   91  A    between atoms: _204  and  _205
REMARK   92  A    between atoms: _208  and  _210
REMARK   93  A    between atoms: _210  and  _211
REMARK   94  A    between atoms: _210  and  _213
REMARK   95  A    between atoms: _213  and  _214
REMARK   96  A    between atoms: _216  and  _218
REMARK   97  A    between atoms: _218  and  _219
REMARK   98  A    between atoms: _222  and  _224
REMARK   99  A    between atoms: _224  and  _225
REMARK  100  A    between atoms: _224  and  _227
REMARK  101  A    between atoms: _227  and  _228
REMARK  102  A    between atoms: _231  and  _233
REMARK  103  A    between atoms: _233  and  _234
REMARK  104  A    between atoms: _233  and  _236
REMARK  105  A    between atoms: _236  and  _237
REMARK  106  A    between atoms: _237  and  _238
REMARK  107  A    between atoms: _238  and  _239
REMARK  108  A    between atoms: _239  and  _240
REMARK  109  A    between atoms: _244  and  _246
REMARK  110  A    between atoms: _246  and  _247
REMARK  111  A    between atoms: _249  and  _251
REMARK  112  A    between atoms: _251  and  _252
REMARK  113  A    between atoms: _251  and  _254
REMARK  114  A    between atoms: _257  and  _259
REMARK  115  A    between atoms: _259  and  _260
REMARK  116  A    between atoms: _259  and  _262
REMARK  117  A    between atoms: _262  and  _263
REMARK  118  A    between atoms: _266  and  _268
REMARK  119  A    between atoms: _268  and  _269
REMARK  120  A    between atoms: _268  and  _271
REMARK  121  A    between atoms: _271  and  _272
REMARK  122  A    between atoms: _272  and  _273
REMARK  123  A    between atoms: _273  and  _274
REMARK  124  A    between atoms: _274  and  _275
REMARK  125  A    between atoms: _279  and  _281
REMARK  126  A    between atoms: _281  and  _282
REMARK  127  A    between atoms: _281  and  _284
REMARK  128  A    between atoms: _287  and  _289
REMARK  129  A    between atoms: _289  and  _290
REMARK  130  A    between atoms: _289  and  _292
REMARK  131  A    between atoms: _292  and  _293
REMARK  132  A    between atoms: _298  and  _300
REMARK  133  A    between atoms: _300  and  _301
REMARK  134  A    between atoms: _300  and  _303
REMARK  135  A    between atoms: _303  and  _304
REMARK  136  A    between atoms: _307  and  _309
REMARK  137  A    between atoms: _309  and  _310
REMARK  138  A    between atoms: _309  and  _312
REMARK  139  A    between atoms: _312  and  _313
REMARK  140  A    between atoms: _316  and  _318
REMARK  141  A    between atoms: _318  and  _319
REMARK  142  A    between atoms: _318  and  _321
REMARK  143  A    between atoms: _321  and  _322
REMARK  144  A    between atoms: _325  and  _327
REMARK  145  A    between atoms: _327  and  _328
REMARK  146  A    between atoms: _327  and  _330
REMARK  147  A    between atoms: _330  and  _331
REMARK  148  A    between atoms: _334  and  _336
REMARK  149  A    between atoms: _336  and  _337
REMARK  150  A    between atoms: _336  and  _339
REMARK  151  A    between atoms: _339  and  _340
REMARK  152  A    between atoms: _343  and  _345
REMARK  153  A    between atoms: _345  and  _346
REMARK  154  A    between atoms: _345  and  _348
REMARK  155  A    between atoms: _348  and  _349
REMARK  156  A    between atoms: _349  and  _350
REMARK  157  A    between atoms: _350  and  _351
REMARK  158  A    between atoms: _360  and  _362
REMARK  159  A    between atoms: _362  and  _363
REMARK  160  A    between atoms: _362  and  _365
REMARK  161  A    between atoms: _365  and  _366
REMARK  162  A    between atoms: _369  and  _371
REMARK  163  A    between atoms: _371  and  _372
REMARK  164  A    between atoms: _371  and  _374
REMARK  165  A    between atoms: _374  and  _375
REMARK  166  A    between atoms: _375  and  _376
REMARK  167  A    between atoms: _376  and  _377
REMARK  168  A    between atoms: _386  and  _388
REMARK  169  A    between atoms: _388  and  _389
REMARK  170  A    between atoms: _388  and  _391
REMARK  171  A    between atoms: _391  and  _392
REMARK  172  A    between atoms: _398  and  _400
REMARK  173  A    between atoms: _400  and  _401
REMARK  174  A    between atoms: _400  and  _403
REMARK  175  A    between atoms: _403  and  _404
REMARK  176  A    between atoms: _407  and  _409
REMARK  177  A    between atoms: _409  and  _410
REMARK  178  A    between atoms: _409  and  _412
REMARK  179  A    between atoms: _412  and  _413
REMARK  180  A    between atoms: _413  and  _414
REMARK  181  A    between atoms: _414  and  _415
REMARK                            x       y       z     vdW  Elec       q    Type
REMARK                         _______ _______ _______ _____ _____    ______ ____
ROOT
ATOM      1  O   HOH     1      -5.878 -12.609 -43.870  0.00  0.00    +0.000 OA
ENDROOT
TORSDOF 0
REMARK  Name = ../refined-set-2016/3n9r/3n9r_pocket.pdb
REMARK  181 active torsions:
REMARK  status: ('A' for Active; 'I' for Inactive)
REMARK    1  A    between atoms: _1  and  _3
REMARK    2  A    between atoms: _3  and  _4
REMARK    3  A    between atoms: _7  and  _9
REMARK    4  A    between atoms: _9  and  _10
REMARK    5  A    between atoms: _9  and  _12
REMARK    6  A    between atoms: _12  and  _13
REMARK    7  A    between atoms: _18  and  _20
REMARK    8  A    between atoms: _20  and  _21
REMARK    9  A    between atoms: _20  and  _23
REMARK   10  A    between atoms: _23  and  _24
REMARK   11  A    between atoms: _24  and  _25
REMARK   12  A    between atoms: _30  and  _32
REMARK   13  A    between atoms: _32  and  _33
REMARK   14  A    between atoms: _32  and  _35
REMARK   15  A    between atoms: _35  and  _36
REMARK   16  A    between atoms: _38  and  _40
REMARK   17  A    between atoms: _40  and  _41
REMARK   18  A    between atoms: _40  and  _43
REMARK   19  A    between atoms: _43  and  _44
REMARK   20  A    between atoms: _47  and  _49
REMARK   21  A    between atoms: _49  and  _50
REMARK   22  A    between atoms: _49  and  _52
REMARK   23  A    between atoms: _52  and  _53
REMARK   24  A    between atoms: _57  and  ZN_424
REMARK   25  A    between atoms: _58  and  _60
REMARK   26  A    between atoms: _60  and  _61
REMARK   27  A    between atoms: _60  and  _63
REMARK   28  A    between atoms: _63  and  _64
REMARK   29  A    between atoms: _64  and  _65
REMARK   30  A    between atoms: _67  and  _69
REMARK   31  A    between atoms: _69  and  _70
REMARK   32  A    between atoms: _69  and  _72
REMARK   33  A    between atoms: _72  and  _73
REMARK   34  A    between atoms: _76  and  _78
REMARK   35  A    between atoms: _78  and  _79
REMARK   36  A    between atoms: _78  and  _81
REMARK   37  A    between atoms: _81  and  _82
REMARK   38  A    between atoms: _82  and  _83
REMARK   39  A    between atoms: _86  and  _88
REMARK   40  A    between atoms: _88  and  _89
REMARK   41  A    between atoms: _88  and  _91
REMARK   42  A    between atoms: _91  and  _92
REMARK   43  A    between atoms: _92  and  _93
REMARK   44  A    between atoms: _96  and  _98
REMARK   45  A    between atoms: _98  and  _99
REMARK   46  A    between atoms: _98  and  _101
REMARK   47  A    between atoms: _101  and  _102
REMARK   48  A    between atoms: _105  and  _107
REMARK   49  A    between atoms: _107  and  _108
REMARK   50  A    between atoms: _107  and  _110
REMARK   51  A    between atoms: _110  and  _111
REMARK   52  A    between atoms: _114  and  _116
REMARK   53  A    between atoms: _116  and  _117
REMARK   54  A    between atoms: _116  and  _119
REMARK   55  A    between atoms: _119  and  _120
REMARK   56  A    between atoms: _122  and  _124
REMARK   57  A    between atoms: _124  and  _125
REMARK   58  A    between atoms: _124  and  _127
REMARK   59  A    between atoms: _127  and  _128
REMARK   60  A    between atoms: _132  and  ZN_424
REMARK   61  A    between atoms: _133  and  _135
REMARK   62  A    between atoms: _135  and  _136
REMARK   63  A    between atoms: _138  and  _140
REMARK   64  A    between atoms: _140  and  _141
REMARK   65  A    between atoms: _144  and  _146
REMARK   66  A    between atoms: _146  and  _147
REMARK   67  A    between atoms: _146  and  _149
REMARK   68  A    between atoms: _149  and  _150
REMARK   69  A    between atoms: _156  and  _158
REMARK   70  A    between atoms: _158  and  _159
REMARK   71  A    between atoms: _158  and  _161
REMARK   72  A    between atoms: _161  and  _162
REMARK   73  A    between atoms: _162  and  _163
REMARK   74  A    between atoms: _163  and  _164
REMARK   75  A    between atoms: _164  and  _165
REMARK   76  A    between atoms: _169  and  _171
REMARK   77  A    between atoms: _171  and  _172
REMARK   78  A    between atoms: _171  and  _174
REMARK   79  A    between atoms: _177  and  _179
REMARK   80  A    between atoms: _179  and  _180
REMARK   81  A    between atoms: _179  and  _182
REMARK   82  A    between atoms: _182  and  _183
REMARK   83  A    between atoms: _186  and  _188
REMARK   84  A    between atoms: _188  and  _189
REMARK   85  A    between atoms: _188  and  _191
REMARK   86  A    between atoms: _191  and  _192
REMARK   87  A    between atoms: _193  and  ZN_424
REMARK   88  A    between atoms: _197  and  _199
REMARK   89  A    between atoms: _199  and  _200
REMARK   90  A    between atoms: _202  and  _204
REMARK   91  A    between atoms: _204  and  _205
REMARK   92  A    between atoms: _208  and  _210
REMARK   93  A    between atoms: _210  and  _211
REMARK   94  A    between atoms: _210  and  _213
REMARK   95  A    between atoms: _213  and  _214
REMARK   96  A    between atoms: _216  and  _218
REMARK   97  A    between atoms: _218  and  _219
REMARK   98  A    between atoms: _222  and  _224
REMARK   99  A    between atoms: _224  and  _225
REMARK  100  A    between atoms: _224  and  _227
REMARK  101  A    between atoms: _227  and  _228
REMARK  102  A    between atoms: _231  and  _233
REMARK  103  A    between atoms: _233  and  _234
REMARK  104  A    between atoms: _233  and  _236
REMARK  105  A    between atoms: _236  and  _237
REMARK  106  A    between atoms: _237  and  _238
REMARK  107  A    between atoms: _238  and  _239
REMARK  108  A    between atoms: _239  and  _240
REMARK  109  A    between atoms: _244  and  _246
REMARK  110  A    between atoms: _246  and  _247
REMARK  111  A    between atoms: _249  and  _251
REMARK  112  A    between atoms: _251  and  _252
REMARK  113  A    between atoms: _251  and  _254
REMARK  114  A    between atoms: _257  and  _259
REMARK  115  A    between atoms: _259  and  _260
REMARK  116  A    between atoms: _259  and  _262
REMARK  117  A    between atoms: _262  and  _263
REMARK  118  A    between atoms: _266  and  _268
REMARK  119  A    between atoms: _268  and  _269
REMARK  120  A    between atoms: _268  and  _271
REMARK  121  A    between atoms: _271  and  _272
REMARK  122  A    between atoms: _272  and  _273
REMARK  123  A    between atoms: _273  and  _274
REMARK  124  A    between atoms: _274  and  _275
REMARK  125  A    between atoms: _279  and  _281
REMARK  126  A    between atoms: _281  and  _282
REMARK  127  A    between atoms: _281  and  _284
REMARK  128  A    between atoms: _287  and  _289
REMARK  129  A    between atoms: _289  and  _290
REMARK  130  A    between atoms: _289  and  _292
REMARK  131  A    between atoms: _292  and  _293
REMARK  132  A    between atoms: _298  and  _300
REMARK  133  A    between atoms: _300  and  _301
REMARK  134  A    between atoms: _300  and  _303
REMARK  135  A    between atoms: _303  and  _304
REMARK  136  A    between atoms: _307  and  _309
REMARK  137  A    between atoms: _309  and  _310
REMARK  138  A    between atoms: _309  and  _312
REMARK  139  A    between atoms: _312  and  _313
REMARK  140  A    between atoms: _316  and  _318
REMARK  141  A    between atoms: _318  and  _319
REMARK  142  A    between atoms: _318  and  _321
REMARK  143  A    between atoms: _321  and  _322
REMARK  144  A    between atoms: _325  and  _327
REMARK  145  A    between atoms: _327  and  _328
REMARK  146  A    between atoms: _327  and  _330
REMARK  147  A    between atoms: _330  and  _331
REMARK  148  A    between atoms: _334  and  _336
REMARK  149  A    between atoms: _336  and  _337
REMARK  150  A    between atoms: _336  and  _339
REMARK  151  A    between atoms: _339  and  _340
REMARK  152  A    between atoms: _343  and  _345
REMARK  153  A    between atoms: _345  and  _346
REMARK  154  A    between atoms: _345  and  _348
REMARK  155  A    between atoms: _348  and  _349
REMARK  156  A    between atoms: _349  and  _350
REMARK  157  A    between atoms: _350  and  _351
REMARK  158  A    between atoms: _360  and  _362
REMARK  159  A    between atoms: _362  and  _363
REMARK  160  A    between atoms: _362  and  _365
REMARK  161  A    between atoms: _365  and  _366
REMARK  162  A    between atoms: _369  and  _371
REMARK  163  A    between atoms: _371  and  _372
REMARK  164  A    between atoms: _371  and  _374
REMARK  165  A    between atoms: _374  and  _375
REMARK  166  A    between atoms: _375  and  _376
REMARK  167  A    between atoms: _376  and  _377
REMARK  168  A    between atoms: _386  and  _388
REMARK  169  A    between atoms: _388  and  _389
REMARK  170  A    between atoms: _388  and  _391
REMARK  171  A    between atoms: _391  and  _392
REMARK  172  A    between atoms: _398  and  _400
REMARK  173  A    between atoms: _400  and  _401
REMARK  174  A    between atoms: _400  and  _403
REMARK  175  A    between atoms: _403  and  _404
REMARK  176  A    between atoms: _407  and  _409
REMARK  177  A    between atoms: _409  and  _410
REMARK  178  A    between atoms: _409  and  _412
REMARK  179  A    between atoms: _412  and  _413
REMARK  180  A    between atoms: _413  and  _414
REMARK  181  A    between atoms: _414  and  _415
REMARK                            x       y       z     vdW  Elec       q    Type
REMARK                         _______ _______ _______ _____ _____    ______ ____
ROOT
ATOM      1  O   HOH     1      -8.467  -8.510 -51.508  0.00  0.00    +0.000 OA
ENDROOT
TORSDOF 0
REMARK  Name = ../refined-set-2016/3n9r/3n9r_pocket.pdb
REMARK  181 active torsions:
REMARK  status: ('A' for Active; 'I' for Inactive)
REMARK    1  A    between atoms: _1  and  _3
REMARK    2  A    between atoms: _3  and  _4
REMARK    3  A    between atoms: _7  and  _9
REMARK    4  A    between atoms: _9  and  _10
REMARK    5  A    between atoms: _9  and  _12
REMARK    6  A    between atoms: _12  and  _13
REMARK    7  A    between atoms: _18  and  _20
REMARK    8  A    between atoms: _20  and  _21
REMARK    9  A    between atoms: _20  and  _23
REMARK   10  A    between atoms: _23  and  _24
REMARK   11  A    between atoms: _24  and  _25
REMARK   12  A    between atoms: _30  and  _32
REMARK   13  A    between atoms: _32  and  _33
REMARK   14  A    between atoms: _32  and  _35
REMARK   15  A    between atoms: _35  and  _36
REMARK   16  A    between atoms: _38  and  _40
REMARK   17  A    between atoms: _40  and  _41
REMARK   18  A    between atoms: _40  and  _43
REMARK   19  A    between atoms: _43  and  _44
REMARK   20  A    between atoms: _47  and  _49
REMARK   21  A    between atoms: _49  and  _50
REMARK   22  A    between atoms: _49  and  _52
REMARK   23  A    between atoms: _52  and  _53
REMARK   24  A    between atoms: _57  and  ZN_424
REMARK   25  A    between atoms: _58  and  _60
REMARK   26  A    between atoms: _60  and  _61
REMARK   27  A    between atoms: _60  and  _63
REMARK   28  A    between atoms: _63  and  _64
REMARK   29  A    between atoms: _64  and  _65
REMARK   30  A    between atoms: _67  and  _69
REMARK   31  A    between atoms: _69  and  _70
REMARK   32  A    between atoms: _69  and  _72
REMARK   33  A    between atoms: _72  and  _73
REMARK   34  A    between atoms: _76  and  _78
REMARK   35  A    between atoms: _78  and  _79
REMARK   36  A    between atoms: _78  and  _81
REMARK   37  A    between atoms: _81  and  _82
REMARK   38  A    between atoms: _82  and  _83
REMARK   39  A    between atoms: _86  and  _88
REMARK   40  A    between atoms: _88  and  _89
REMARK   41  A    between atoms: _88  and  _91
REMARK   42  A    between atoms: _91  and  _92
REMARK   43  A    between atoms: _92  and  _93
REMARK   44  A    between atoms: _96  and  _98
REMARK   45  A    between atoms: _98  and  _99
REMARK   46  A    between atoms: _98  and  _101
REMARK   47  A    between atoms: _101  and  _102
REMARK   48  A    between atoms: _105  and  _107
REMARK   49  A    between atoms: _107  and  _108
REMARK   50  A    between atoms: _107  and  _110
REMARK   51  A    between atoms: _110  and  _111
REMARK   52  A    between atoms: _114  and  _116
REMARK   53  A    between atoms: _116  and  _117
REMARK   54  A    between atoms: _116  and  _119
REMARK   55  A    between atoms: _119  and  _120
REMARK   56  A    between atoms: _122  and  _124
REMARK   57  A    between atoms: _124  and  _125
REMARK   58  A    between atoms: _124  and  _127
REMARK   59  A    between atoms: _127  and  _128
REMARK   60  A    between atoms: _132  and  ZN_424
REMARK   61  A    between atoms: _133  and  _135
REMARK   62  A    between atoms: _135  and  _136
REMARK   63  A    between atoms: _138  and  _140
REMARK   64  A    between atoms: _140  and  _141
REMARK   65  A    between atoms: _144  and  _146
REMARK   66  A    between atoms: _146  and  _147
REMARK   67  A    between atoms: _146  and  _149
REMARK   68  A    between atoms: _149  and  _150
REMARK   69  A    between atoms: _156  and  _158
REMARK   70  A    between atoms: _158  and  _159
REMARK   71  A    between atoms: _158  and  _161
REMARK   72  A    between atoms: _161  and  _162
REMARK   73  A    between atoms: _162  and  _163
REMARK   74  A    between atoms: _163  and  _164
REMARK   75  A    between atoms: _164  and  _165
REMARK   76  A    between atoms: _169  and  _171
REMARK   77  A    between atoms: _171  and  _172
REMARK   78  A    between atoms: _171  and  _174
REMARK   79  A    between atoms: _177  and  _179
REMARK   80  A    between atoms: _179  and  _180
REMARK   81  A    between atoms: _179  and  _182
REMARK   82  A    between atoms: _182  and  _183
REMARK   83  A    between atoms: _186  and  _188
REMARK   84  A    between atoms: _188  and  _189
REMARK   85  A    between atoms: _188  and  _191
REMARK   86  A    between atoms: _191  and  _192
REMARK   87  A    between atoms: _193  and  ZN_424
REMARK   88  A    between atoms: _197  and  _199
REMARK   89  A    between atoms: _199  and  _200
REMARK   90  A    between atoms: _202  and  _204
REMARK   91  A    between atoms: _204  and  _205
REMARK   92  A    between atoms: _208  and  _210
REMARK   93  A    between atoms: _210  and  _211
REMARK   94  A    between atoms: _210  and  _213
REMARK   95  A    between atoms: _213  and  _214
REMARK   96  A    between atoms: _216  and  _218
REMARK   97  A    between atoms: _218  and  _219
REMARK   98  A    between atoms: _222  and  _224
REMARK   99  A    between atoms: _224  and  _225
REMARK  100  A    between atoms: _224  and  _227
REMARK  101  A    between atoms: _227  and  _228
REMARK  102  A    between atoms: _231  and  _233
REMARK  103  A    between atoms: _233  and  _234
REMARK  104  A    between atoms: _233  and  _236
REMARK  105  A    between atoms: _236  and  _237
REMARK  106  A    between atoms: _237  and  _238
REMARK  107  A    between atoms: _238  and  _239
REMARK  108  A    between atoms: _239  and  _240
REMARK  109  A    between atoms: _244  and  _246
REMARK  110  A    between atoms: _246  and  _247
REMARK  111  A    between atoms: _249  and  _251
REMARK  112  A    between atoms: _251  and  _252
REMARK  113  A    between atoms: _251  and  _254
REMARK  114  A    between atoms: _257  and  _259
REMARK  115  A    between atoms: _259  and  _260
REMARK  116  A    between atoms: _259  and  _262
REMARK  117  A    between atoms: _262  and  _263
REMARK  118  A    between atoms: _266  and  _268
REMARK  119  A    between atoms: _268  and  _269
REMARK  120  A    between atoms: _268  and  _271
REMARK  121  A    between atoms: _271  and  _272
REMARK  122  A    between atoms: _272  and  _273
REMARK  123  A    between atoms: _273  and  _274
REMARK  124  A    between atoms: _274  and  _275
REMARK  125  A    between atoms: _279  and  _281
REMARK  126  A    between atoms: _281  and  _282
REMARK  127  A    between atoms: _281  and  _284
REMARK  128  A    between atoms: _287  and  _289
REMARK  129  A    between atoms: _289  and  _290
REMARK  130  A    between atoms: _289  and  _292
REMARK  131  A    between atoms: _292  and  _293
REMARK  132  A    between atoms: _298  and  _300
REMARK  133  A    between atoms: _300  and  _301
REMARK  134  A    between atoms: _300  and  _303
REMARK  135  A    between atoms: _303  and  _304
REMARK  136  A    between atoms: _307  and  _309
REMARK  137  A    between atoms: _309  and  _310
REMARK  138  A    between atoms: _309  and  _312
REMARK  139  A    between atoms: _312  and  _313
REMARK  140  A    between atoms: _316  and  _318
REMARK  141  A    between atoms: _318  and  _319
REMARK  142  A    between atoms: _318  and  _321
REMARK  143  A    between atoms: _321  and  _322
REMARK  144  A    between atoms: _325  and  _327
REMARK  145  A    between atoms: _327  and  _328
REMARK  146  A    between atoms: _327  and  _330
REMARK  147  A    between atoms: _330  and  _331
REMARK  148  A    between atoms: _334  and  _336
REMARK  149  A    between atoms: _336  and  _337
REMARK  150  A    between atoms: _336  and  _339
REMARK  151  A    between atoms: _339  and  _340
REMARK  152  A    between atoms: _343  and  _345
REMARK  153  A    between atoms: _345  and  _346
REMARK  154  A    between atoms: _345  and  _348
REMARK  155  A    between atoms: _348  and  _349
REMARK  156  A    between atoms: _349  and  _350
REMARK  157  A    between atoms: _350  and  _351
REMARK  158  A    between atoms: _360  and  _362
REMARK  159  A    between atoms: _362  and  _363
REMARK  160  A    between atoms: _362  and  _365
REMARK  161  A    between atoms: _365  and  _366
REMARK  162  A    between atoms: _369  and  _371
REMARK  163  A    between atoms: _371  and  _372
REMARK  164  A    between atoms: _371  and  _374
REMARK  165  A    between atoms: _374  and  _375
REMARK  166  A    between atoms: _375  and  _376
REMARK  167  A    between atoms: _376  and  _377
REMARK  168  A    between atoms: _386  and  _388
REMARK  169  A    between atoms: _388  and  _389
REMARK  170  A    between atoms: _388  and  _391
REMARK  171  A    between atoms: _391  and  _392
REMARK  172  A    between atoms: _398  and  _400
REMARK  173  A    between atoms: _400  and  _401
REMARK  174  A    between atoms: _400  and  _403
REMARK  175  A    between atoms: _403  and  _404
REMARK  176  A    between atoms: _407  and  _409
REMARK  177  A    between atoms: _409  and  _410
REMARK  178  A    between atoms: _409  and  _412
REMARK  179  A    between atoms: _412  and  _413
REMARK  180  A    between atoms: _413  and  _414
REMARK  181  A    between atoms: _414  and  _415
REMARK                            x       y       z     vdW  Elec       q    Type
REMARK                         _______ _______ _______ _____ _____    ______ ____
ROOT
ATOM      1  O   HOH     1      -4.810 -14.847 -42.666  0.00  0.00    +0.000 OA
ENDROOT
TORSDOF 0
REMARK  Name = ../refined-set-2016/3n9r/3n9r_pocket.pdb
REMARK  181 active torsions:
REMARK  status: ('A' for Active; 'I' for Inactive)
REMARK    1  A    between atoms: _1  and  _3
REMARK    2  A    between atoms: _3  and  _4
REMARK    3  A    between atoms: _7  and  _9
REMARK    4  A    between atoms: _9  and  _10
REMARK    5  A    between atoms: _9  and  _12
REMARK    6  A    between atoms: _12  and  _13
REMARK    7  A    between atoms: _18  and  _20
REMARK    8  A    between atoms: _20  and  _21
REMARK    9  A    between atoms: _20  and  _23
REMARK   10  A    between atoms: _23  and  _24
REMARK   11  A    between atoms: _24  and  _25
REMARK   12  A    between atoms: _30  and  _32
REMARK   13  A    between atoms: _32  and  _33
REMARK   14  A    between atoms: _32  and  _35
REMARK   15  A    between atoms: _35  and  _36
REMARK   16  A    between atoms: _38  and  _40
REMARK   17  A    between atoms: _40  and  _41
REMARK   18  A    between atoms: _40  and  _43
REMARK   19  A    between atoms: _43  and  _44
REMARK   20  A    between atoms: _47  and  _49
REMARK   21  A    between atoms: _49  and  _50
REMARK   22  A    between atoms: _49  and  _52
REMARK   23  A    between atoms: _52  and  _53
REMARK   24  A    between atoms: _57  and  ZN_424
REMARK   25  A    between atoms: _58  and  _60
REMARK   26  A    between atoms: _60  and  _61
REMARK   27  A    between atoms: _60  and  _63
REMARK   28  A    between atoms: _63  and  _64
REMARK   29  A    between atoms: _64  and  _65
REMARK   30  A    between atoms: _67  and  _69
REMARK   31  A    between atoms: _69  and  _70
REMARK   32  A    between atoms: _69  and  _72
REMARK   33  A    between atoms: _72  and  _73
REMARK   34  A    between atoms: _76  and  _78
REMARK   35  A    between atoms: _78  and  _79
REMARK   36  A    between atoms: _78  and  _81
REMARK   37  A    between atoms: _81  and  _82
REMARK   38  A    between atoms: _82  and  _83
REMARK   39  A    between atoms: _86  and  _88
REMARK   40  A    between atoms: _88  and  _89
REMARK   41  A    between atoms: _88  and  _91
REMARK   42  A    between atoms: _91  and  _92
REMARK   43  A    between atoms: _92  and  _93
REMARK   44  A    between atoms: _96  and  _98
REMARK   45  A    between atoms: _98  and  _99
REMARK   46  A    between atoms: _98  and  _101
REMARK   47  A    between atoms: _101  and  _102
REMARK   48  A    between atoms: _105  and  _107
REMARK   49  A    between atoms: _107  and  _108
REMARK   50  A    between atoms: _107  and  _110
REMARK   51  A    between atoms: _110  and  _111
REMARK   52  A    between atoms: _114  and  _116
REMARK   53  A    between atoms: _116  and  _117
REMARK   54  A    between atoms: _116  and  _119
REMARK   55  A    between atoms: _119  and  _120
REMARK   56  A    between atoms: _122  and  _124
REMARK   57  A    between atoms: _124  and  _125
REMARK   58  A    between atoms: _124  and  _127
REMARK   59  A    between atoms: _127  and  _128
REMARK   60  A    between atoms: _132  and  ZN_424
REMARK   61  A    between atoms: _133  and  _135
REMARK   62  A    between atoms: _135  and  _136
REMARK   63  A    between atoms: _138  and  _140
REMARK   64  A    between atoms: _140  and  _141
REMARK   65  A    between atoms: _144  and  _146
REMARK   66  A    between atoms: _146  and  _147
REMARK   67  A    between atoms: _146  and  _149
REMARK   68  A    between atoms: _149  and  _150
REMARK   69  A    between atoms: _156  and  _158
REMARK   70  A    between atoms: _158  and  _159
REMARK   71  A    between atoms: _158  and  _161
REMARK   72  A    between atoms: _161  and  _162
REMARK   73  A    between atoms: _162  and  _163
REMARK   74  A    between atoms: _163  and  _164
REMARK   75  A    between atoms: _164  and  _165
REMARK   76  A    between atoms: _169  and  _171
REMARK   77  A    between atoms: _171  and  _172
REMARK   78  A    between atoms: _171  and  _174
REMARK   79  A    between atoms: _177  and  _179
REMARK   80  A    between atoms: _179  and  _180
REMARK   81  A    between atoms: _179  and  _182
REMARK   82  A    between atoms: _182  and  _183
REMARK   83  A    between atoms: _186  and  _188
REMARK   84  A    between atoms: _188  and  _189
REMARK   85  A    between atoms: _188  and  _191
REMARK   86  A    between atoms: _191  and  _192
REMARK   87  A    between atoms: _193  and  ZN_424
REMARK   88  A    between atoms: _197  and  _199
REMARK   89  A    between atoms: _199  and  _200
REMARK   90  A    between atoms: _202  and  _204
REMARK   91  A    between atoms: _204  and  _205
REMARK   92  A    between atoms: _208  and  _210
REMARK   93  A    between atoms: _210  and  _211
REMARK   94  A    between atoms: _210  and  _213
REMARK   95  A    between atoms: _213  and  _214
REMARK   96  A    between atoms: _216  and  _218
REMARK   97  A    between atoms: _218  and  _219
REMARK   98  A    between atoms: _222  and  _224
REMARK   99  A    between atoms: _224  and  _225
REMARK  100  A    between atoms: _224  and  _227
REMARK  101  A    between atoms: _227  and  _228
REMARK  102  A    between atoms: _231  and  _233
REMARK  103  A    between atoms: _233  and  _234
REMARK  104  A    between atoms: _233  and  _236
REMARK  105  A    between atoms: _236  and  _237
REMARK  106  A    between atoms: _237  and  _238
REMARK  107  A    between atoms: _238  and  _239
REMARK  108  A    between atoms: _239  and  _240
REMARK  109  A    between atoms: _244  and  _246
REMARK  110  A    between atoms: _246  and  _247
REMARK  111  A    between atoms: _249  and  _251
REMARK  112  A    between atoms: _251  and  _252
REMARK  113  A    between atoms: _251  and  _254
REMARK  114  A    between atoms: _257  and  _259
REMARK  115  A    between atoms: _259  and  _260
REMARK  116  A    between atoms: _259  and  _262
REMARK  117  A    between atoms: _262  and  _263
REMARK  118  A    between atoms: _266  and  _268
REMARK  119  A    between atoms: _268  and  _269
REMARK  120  A    between atoms: _268  and  _271
REMARK  121  A    between atoms: _271  and  _272
REMARK  122  A    between atoms: _272  and  _273
REMARK  123  A    between atoms: _273  and  _274
REMARK  124  A    between atoms: _274  and  _275
REMARK  125  A    between atoms: _279  and  _281
REMARK  126  A    between atoms: _281  and  _282
REMARK  127  A    between atoms: _281  and  _284
REMARK  128  A    between atoms: _287  and  _289
REMARK  129  A    between atoms: _289  and  _290
REMARK  130  A    between atoms: _289  and  _292
REMARK  131  A    between atoms: _292  and  _293
REMARK  132  A    between atoms: _298  and  _300
REMARK  133  A    between atoms: _300  and  _301
REMARK  134  A    between atoms: _300  and  _303
REMARK  135  A    between atoms: _303  and  _304
REMARK  136  A    between atoms: _307  and  _309
REMARK  137  A    between atoms: _309  and  _310
REMARK  138  A    between atoms: _309  and  _312
REMARK  139  A    between atoms: _312  and  _313
REMARK  140  A    between atoms: _316  and  _318
REMARK  141  A    between atoms: _318  and  _319
REMARK  142  A    between atoms: _318  and  _321
REMARK  143  A    between atoms: _321  and  _322
REMARK  144  A    between atoms: _325  and  _327
REMARK  145  A    between atoms: _327  and  _328
REMARK  146  A    between atoms: _327  and  _330
REMARK  147  A    between atoms: _330  and  _331
REMARK  148  A    between atoms: _334  and  _336
REMARK  149  A    between atoms: _336  and  _337
REMARK  150  A    between atoms: _336  and  _339
REMARK  151  A    between atoms: _339  and  _340
REMARK  152  A    between atoms: _343  and  _345
REMARK  153  A    between atoms: _345  and  _346
REMARK  154  A    between atoms: _345  and  _348
REMARK  155  A    between atoms: _348  and  _349
REMARK  156  A    between atoms: _349  and  _350
REMARK  157  A    between atoms: _350  and  _351
REMARK  158  A    between atoms: _360  and  _362
REMARK  159  A    between atoms: _362  and  _363
REMARK  160  A    between atoms: _362  and  _365
REMARK  161  A    between atoms: _365  and  _366
REMARK  162  A    between atoms: _369  and  _371
REMARK  163  A    between atoms: _371  and  _372
REMARK  164  A    between atoms: _371  and  _374
REMARK  165  A    between atoms: _374  and  _375
REMARK  166  A    between atoms: _375  and  _376
REMARK  167  A    between atoms: _376  and  _377
REMARK  168  A    between atoms: _386  and  _388
REMARK  169  A    between atoms: _388  and  _389
REMARK  170  A    between atoms: _388  and  _391
REMARK  171  A    between atoms: _391  and  _392
REMARK  172  A    between atoms: _398  and  _400
REMARK  173  A    between atoms: _400  and  _401
REMARK  174  A    between atoms: _400  and  _403
REMARK  175  A    between atoms: _403  and  _404
REMARK  176  A    between atoms: _407  and  _409
REMARK  177  A    between atoms: _409  and  _410
REMARK  178  A    between atoms: _409  and  _412
REMARK  179  A    between atoms: _412  and  _413
REMARK  180  A    between atoms: _413  and  _414
REMARK  181  A    between atoms: _414  and  _415
REMARK                            x       y       z     vdW  Elec       q    Type
REMARK                         _______ _______ _______ _____ _____    ______ ____
ROOT
ATOM      1  O   HOH     1      -4.711 -11.030 -42.459  0.00  0.00    +0.000 OA
ENDROOT
TORSDOF 0
REMARK  Name = ../refined-set-2016/3n9r/3n9r_pocket.pdb
REMARK  181 active torsions:
REMARK  status: ('A' for Active; 'I' for Inactive)
REMARK    1  A    between atoms: _1  and  _3
REMARK    2  A    between atoms: _3  and  _4
REMARK    3  A    between atoms: _7  and  _9
REMARK    4  A    between atoms: _9  and  _10
REMARK    5  A    between atoms: _9  and  _12
REMARK    6  A    between atoms: _12  and  _13
REMARK    7  A    between atoms: _18  and  _20
REMARK    8  A    between atoms: _20  and  _21
REMARK    9  A    between atoms: _20  and  _23
REMARK   10  A    between atoms: _23  and  _24
REMARK   11  A    between atoms: _24  and  _25
REMARK   12  A    between atoms: _30  and  _32
REMARK   13  A    between atoms: _32  and  _33
REMARK   14  A    between atoms: _32  and  _35
REMARK   15  A    between atoms: _35  and  _36
REMARK   16  A    between atoms: _38  and  _40
REMARK   17  A    between atoms: _40  and  _41
REMARK   18  A    between atoms: _40  and  _43
REMARK   19  A    between atoms: _43  and  _44
REMARK   20  A    between atoms: _47  and  _49
REMARK   21  A    between atoms: _49  and  _50
REMARK   22  A    between atoms: _49  and  _52
REMARK   23  A    between atoms: _52  and  _53
REMARK   24  A    between atoms: _57  and  ZN_424
REMARK   25  A    between atoms: _58  and  _60
REMARK   26  A    between atoms: _60  and  _61
REMARK   27  A    between atoms: _60  and  _63
REMARK   28  A    between atoms: _63  and  _64
REMARK   29  A    between atoms: _64  and  _65
REMARK   30  A    between atoms: _67  and  _69
REMARK   31  A    between atoms: _69  and  _70
REMARK   32  A    between atoms: _69  and  _72
REMARK   33  A    between atoms: _72  and  _73
REMARK   34  A    between atoms: _76  and  _78
REMARK   35  A    between atoms: _78  and  _79
REMARK   36  A    between atoms: _78  and  _81
REMARK   37  A    between atoms: _81  and  _82
REMARK   38  A    between atoms: _82  and  _83
REMARK   39  A    between atoms: _86  and  _88
REMARK   40  A    between atoms: _88  and  _89
REMARK   41  A    between atoms: _88  and  _91
REMARK   42  A    between atoms: _91  and  _92
REMARK   43  A    between atoms: _92  and  _93
REMARK   44  A    between atoms: _96  and  _98
REMARK   45  A    between atoms: _98  and  _99
REMARK   46  A    between atoms: _98  and  _101
REMARK   47  A    between atoms: _101  and  _102
REMARK   48  A    between atoms: _105  and  _107
REMARK   49  A    between atoms: _107  and  _108
REMARK   50  A    between atoms: _107  and  _110
REMARK   51  A    between atoms: _110  and  _111
REMARK   52  A    between atoms: _114  and  _116
REMARK   53  A    between atoms: _116  and  _117
REMARK   54  A    between atoms: _116  and  _119
REMARK   55  A    between atoms: _119  and  _120
REMARK   56  A    between atoms: _122  and  _124
REMARK   57  A    between atoms: _124  and  _125
REMARK   58  A    between atoms: _124  and  _127
REMARK   59  A    between atoms: _127  and  _128
REMARK   60  A    between atoms: _132  and  ZN_424
REMARK   61  A    between atoms: _133  and  _135
REMARK   62  A    between atoms: _135  and  _136
REMARK   63  A    between atoms: _138  and  _140
REMARK   64  A    between atoms: _140  and  _141
REMARK   65  A    between atoms: _144  and  _146
REMARK   66  A    between atoms: _146  and  _147
REMARK   67  A    between atoms: _146  and  _149
REMARK   68  A    between atoms: _149  and  _150
REMARK   69  A    between atoms: _156  and  _158
REMARK   70  A    between atoms: _158  and  _159
REMARK   71  A    between atoms: _158  and  _161
REMARK   72  A    between atoms: _161  and  _162
REMARK   73  A    between atoms: _162  and  _163
REMARK   74  A    between atoms: _163  and  _164
REMARK   75  A    between atoms: _164  and  _165
REMARK   76  A    between atoms: _169  and  _171
REMARK   77  A    between atoms: _171  and  _172
REMARK   78  A    between atoms: _171  and  _174
REMARK   79  A    between atoms: _177  and  _179
REMARK   80  A    between atoms: _179  and  _180
REMARK   81  A    between atoms: _179  and  _182
REMARK   82  A    between atoms: _182  and  _183
REMARK   83  A    between atoms: _186  and  _188
REMARK   84  A    between atoms: _188  and  _189
REMARK   85  A    between atoms: _188  and  _191
REMARK   86  A    between atoms: _191  and  _192
REMARK   87  A    between atoms: _193  and  ZN_424
REMARK   88  A    between atoms: _197  and  _199
REMARK   89  A    between atoms: _199  and  _200
REMARK   90  A    between atoms: _202  and  _204
REMARK   91  A    between atoms: _204  and  _205
REMARK   92  A    between atoms: _208  and  _210
REMARK   93  A    between atoms: _210  and  _211
REMARK   94  A    between atoms: _210  and  _213
REMARK   95  A    between atoms: _213  and  _214
REMARK   96  A    between atoms: _216  and  _218
REMARK   97  A    between atoms: _218  and  _219
REMARK   98  A    between atoms: _222  and  _224
REMARK   99  A    between atoms: _224  and  _225
REMARK  100  A    between atoms: _224  and  _227
REMARK  101  A    between atoms: _227  and  _228
REMARK  102  A    between atoms: _231  and  _233
REMARK  103  A    between atoms: _233  and  _234
REMARK  104  A    between atoms: _233  and  _236
REMARK  105  A    between atoms: _236  and  _237
REMARK  106  A    between atoms: _237  and  _238
REMARK  107  A    between atoms: _238  and  _239
REMARK  108  A    between atoms: _239  and  _240
REMARK  109  A    between atoms: _244  and  _246
REMARK  110  A    between atoms: _246  and  _247
REMARK  111  A    between atoms: _249  and  _251
REMARK  112  A    between atoms: _251  and  _252
REMARK  113  A    between atoms: _251  and  _254
REMARK  114  A    between atoms: _257  and  _259
REMARK  115  A    between atoms: _259  and  _260
REMARK  116  A    between atoms: _259  and  _262
REMARK  117  A    between atoms: _262  and  _263
REMARK  118  A    between atoms: _266  and  _268
REMARK  119  A    between atoms: _268  and  _269
REMARK  120  A    between atoms: _268  and  _271
REMARK  121  A    between atoms: _271  and  _272
REMARK  122  A    between atoms: _272  and  _273
REMARK  123  A    between atoms: _273  and  _274
REMARK  124  A    between atoms: _274  and  _275
REMARK  125  A    between atoms: _279  and  _281
REMARK  126  A    between atoms: _281  and  _282
REMARK  127  A    between atoms: _281  and  _284
REMARK  128  A    between atoms: _287  and  _289
REMARK  129  A    between atoms: _289  and  _290
REMARK  130  A    between atoms: _289  and  _292
REMARK  131  A    between atoms: _292  and  _293
REMARK  132  A    between atoms: _298  and  _300
REMARK  133  A    between atoms: _300  and  _301
REMARK  134  A    between atoms: _300  and  _303
REMARK  135  A    between atoms: _303  and  _304
REMARK  136  A    between atoms: _307  and  _309
REMARK  137  A    between atoms: _309  and  _310
REMARK  138  A    between atoms: _309  and  _312
REMARK  139  A    between atoms: _312  and  _313
REMARK  140  A    between atoms: _316  and  _318
REMARK  141  A    between atoms: _318  and  _319
REMARK  142  A    between atoms: _318  and  _321
REMARK  143  A    between atoms: _321  and  _322
REMARK  144  A    between atoms: _325  and  _327
REMARK  145  A    between atoms: _327  and  _328
REMARK  146  A    between atoms: _327  and  _330
REMARK  147  A    between atoms: _330  and  _331
REMARK  148  A    between atoms: _334  and  _336
REMARK  149  A    between atoms: _336  and  _337
REMARK  150  A    between atoms: _336  and  _339
REMARK  151  A    between atoms: _339  and  _340
REMARK  152  A    between atoms: _343  and  _345
REMARK  153  A    between atoms: _345  and  _346
REMARK  154  A    between atoms: _345  and  _348
REMARK  155  A    between atoms: _348  and  _349
REMARK  156  A    between atoms: _349  and  _350
REMARK  157  A    between atoms: _350  and  _351
REMARK  158  A    between atoms: _360  and  _362
REMARK  159  A    between atoms: _362  and  _363
REMARK  160  A    between atoms: _362  and  _365
REMARK  161  A    between atoms: _365  and  _366
REMARK  162  A    between atoms: _369  and  _371
REMARK  163  A    between atoms: _371  and  _372
REMARK  164  A    between atoms: _371  and  _374
REMARK  165  A    between atoms: _374  and  _375
REMARK  166  A    between atoms: _375  and  _376
REMARK  167  A    between atoms: _376  and  _377
REMARK  168  A    between atoms: _386  and  _388
REMARK  169  A    between atoms: _388  and  _389
REMARK  170  A    between atoms: _388  and  _391
REMARK  171  A    between atoms: _391  and  _392
REMARK  172  A    between atoms: _398  and  _400
REMARK  173  A    between atoms: _400  and  _401
REMARK  174  A    between atoms: _400  and  _403
REMARK  175  A    between atoms: _403  and  _404
REMARK  176  A    between atoms: _407  and  _409
REMARK  177  A    between atoms: _409  and  _410
REMARK  178  A    between atoms: _409  and  _412
REMARK  179  A    between atoms: _412  and  _413
REMARK  180  A    between atoms: _413  and  _414
REMARK  181  A    between atoms: _414  and  _415
REMARK                            x       y       z     vdW  Elec       q    Type
REMARK                         _______ _______ _______ _____ _____    ______ ____
ROOT
ATOM      1  O   HOH     1      -6.425  -5.679 -40.045  0.00  0.00    +0.000 OA
ENDROOT
TORSDOF 0
REMARK  Name = ../refined-set-2016/3n9r/3n9r_pocket.pdb
REMARK  181 active torsions:
REMARK  status: ('A' for Active; 'I' for Inactive)
REMARK    1  A    between atoms: _1  and  _3
REMARK    2  A    between atoms: _3  and  _4
REMARK    3  A    between atoms: _7  and  _9
REMARK    4  A    between atoms: _9  and  _10
REMARK    5  A    between atoms: _9  and  _12
REMARK    6  A    between atoms: _12  and  _13
REMARK    7  A    between atoms: _18  and  _20
REMARK    8  A    between atoms: _20  and  _21
REMARK    9  A    between atoms: _20  and  _23
REMARK   10  A    between atoms: _23  and  _24
REMARK   11  A    between atoms: _24  and  _25
REMARK   12  A    between atoms: _30  and  _32
REMARK   13  A    between atoms: _32  and  _33
REMARK   14  A    between atoms: _32  and  _35
REMARK   15  A    between atoms: _35  and  _36
REMARK   16  A    between atoms: _38  and  _40
REMARK   17  A    between atoms: _40  and  _41
REMARK   18  A    between atoms: _40  and  _43
REMARK   19  A    between atoms: _43  and  _44
REMARK   20  A    between atoms: _47  and  _49
REMARK   21  A    between atoms: _49  and  _50
REMARK   22  A    between atoms: _49  and  _52
REMARK   23  A    between atoms: _52  and  _53
REMARK   24  A    between atoms: _57  and  ZN_424
REMARK   25  A    between atoms: _58  and  _60
REMARK   26  A    between atoms: _60  and  _61
REMARK   27  A    between atoms: _60  and  _63
REMARK   28  A    between atoms: _63  and  _64
REMARK   29  A    between atoms: _64  and  _65
REMARK   30  A    between atoms: _67  and  _69
REMARK   31  A    between atoms: _69  and  _70
REMARK   32  A    between atoms: _69  and  _72
REMARK   33  A    between atoms: _72  and  _73
REMARK   34  A    between atoms: _76  and  _78
REMARK   35  A    between atoms: _78  and  _79
REMARK   36  A    between atoms: _78  and  _81
REMARK   37  A    between atoms: _81  and  _82
REMARK   38  A    between atoms: _82  and  _83
REMARK   39  A    between atoms: _86  and  _88
REMARK   40  A    between atoms: _88  and  _89
REMARK   41  A    between atoms: _88  and  _91
REMARK   42  A    between atoms: _91  and  _92
REMARK   43  A    between atoms: _92  and  _93
REMARK   44  A    between atoms: _96  and  _98
REMARK   45  A    between atoms: _98  and  _99
REMARK   46  A    between atoms: _98  and  _101
REMARK   47  A    between atoms: _101  and  _102
REMARK   48  A    between atoms: _105  and  _107
REMARK   49  A    between atoms: _107  and  _108
REMARK   50  A    between atoms: _107  and  _110
REMARK   51  A    between atoms: _110  and  _111
REMARK   52  A    between atoms: _114  and  _116
REMARK   53  A    between atoms: _116  and  _117
REMARK   54  A    between atoms: _116  and  _119
REMARK   55  A    between atoms: _119  and  _120
REMARK   56  A    between atoms: _122  and  _124
REMARK   57  A    between atoms: _124  and  _125
REMARK   58  A    between atoms: _124  and  _127
REMARK   59  A    between atoms: _127  and  _128
REMARK   60  A    between atoms: _132  and  ZN_424
REMARK   61  A    between atoms: _133  and  _135
REMARK   62  A    between atoms: _135  and  _136
REMARK   63  A    between atoms: _138  and  _140
REMARK   64  A    between atoms: _140  and  _141
REMARK   65  A    between atoms: _144  and  _146
REMARK   66  A    between atoms: _146  and  _147
REMARK   67  A    between atoms: _146  and  _149
REMARK   68  A    between atoms: _149  and  _150
REMARK   69  A    between atoms: _156  and  _158
REMARK   70  A    between atoms: _158  and  _159
REMARK   71  A    between atoms: _158  and  _161
REMARK   72  A    between atoms: _161  and  _162
REMARK   73  A    between atoms: _162  and  _163
REMARK   74  A    between atoms: _163  and  _164
REMARK   75  A    between atoms: _164  and  _165
REMARK   76  A    between atoms: _169  and  _171
REMARK   77  A    between atoms: _171  and  _172
REMARK   78  A    between atoms: _171  and  _174
REMARK   79  A    between atoms: _177  and  _179
REMARK   80  A    between atoms: _179  and  _180
REMARK   81  A    between atoms: _179  and  _182
REMARK   82  A    between atoms: _182  and  _183
REMARK   83  A    between atoms: _186  and  _188
REMARK   84  A    between atoms: _188  and  _189
REMARK   85  A    between atoms: _188  and  _191
REMARK   86  A    between atoms: _191  and  _192
REMARK   87  A    between atoms: _193  and  ZN_424
REMARK   88  A    between atoms: _197  and  _199
REMARK   89  A    between atoms: _199  and  _200
REMARK   90  A    between atoms: _202  and  _204
REMARK   91  A    between atoms: _204  and  _205
REMARK   92  A    between atoms: _208  and  _210
REMARK   93  A    between atoms: _210  and  _211
REMARK   94  A    between atoms: _210  and  _213
REMARK   95  A    between atoms: _213  and  _214
REMARK   96  A    between atoms: _216  and  _218
REMARK   97  A    between atoms: _218  and  _219
REMARK   98  A    between atoms: _222  and  _224
REMARK   99  A    between atoms: _224  and  _225
REMARK  100  A    between atoms: _224  and  _227
REMARK  101  A    between atoms: _227  and  _228
REMARK  102  A    between atoms: _231  and  _233
REMARK  103  A    between atoms: _233  and  _234
REMARK  104  A    between atoms: _233  and  _236
REMARK  105  A    between atoms: _236  and  _237
REMARK  106  A    between atoms: _237  and  _238
REMARK  107  A    between atoms: _238  and  _239
REMARK  108  A    between atoms: _239  and  _240
REMARK  109  A    between atoms: _244  and  _246
REMARK  110  A    between atoms: _246  and  _247
REMARK  111  A    between atoms: _249  and  _251
REMARK  112  A    between atoms: _251  and  _252
REMARK  113  A    between atoms: _251  and  _254
REMARK  114  A    between atoms: _257  and  _259
REMARK  115  A    between atoms: _259  and  _260
REMARK  116  A    between atoms: _259  and  _262
REMARK  117  A    between atoms: _262  and  _263
REMARK  118  A    between atoms: _266  and  _268
REMARK  119  A    between atoms: _268  and  _269
REMARK  120  A    between atoms: _268  and  _271
REMARK  121  A    between atoms: _271  and  _272
REMARK  122  A    between atoms: _272  and  _273
REMARK  123  A    between atoms: _273  and  _274
REMARK  124  A    between atoms: _274  and  _275
REMARK  125  A    between atoms: _279  and  _281
REMARK  126  A    between atoms: _281  and  _282
REMARK  127  A    between atoms: _281  and  _284
REMARK  128  A    between atoms: _287  and  _289
REMARK  129  A    between atoms: _289  and  _290
REMARK  130  A    between atoms: _289  and  _292
REMARK  131  A    between atoms: _292  and  _293
REMARK  132  A    between atoms: _298  and  _300
REMARK  133  A    between atoms: _300  and  _301
REMARK  134  A    between atoms: _300  and  _303
REMARK  135  A    between atoms: _303  and  _304
REMARK  136  A    between atoms: _307  and  _309
REMARK  137  A    between atoms: _309  and  _310
REMARK  138  A    between atoms: _309  and  _312
REMARK  139  A    between atoms: _312  and  _313
REMARK  140  A    between atoms: _316  and  _318
REMARK  141  A    between atoms: _318  and  _319
REMARK  142  A    between atoms: _318  and  _321
REMARK  143  A    between atoms: _321  and  _322
REMARK  144  A    between atoms: _325  and  _327
REMARK  145  A    between atoms: _327  and  _328
REMARK  146  A    between atoms: _327  and  _330
REMARK  147  A    between atoms: _330  and  _331
REMARK  148  A    between atoms: _334  and  _336
REMARK  149  A    between atoms: _336  and  _337
REMARK  150  A    between atoms: _336  and  _339
REMARK  151  A    between atoms: _339  and  _340
REMARK  152  A    between atoms: _343  and  _345
REMARK  153  A    between atoms: _345  and  _346
REMARK  154  A    between atoms: _345  and  _348
REMARK  155  A    between atoms: _348  and  _349
REMARK  156  A    between atoms: _349  and  _350
REMARK  157  A    between atoms: _350  and  _351
REMARK  158  A    between atoms: _360  and  _362
REMARK  159  A    between atoms: _362  and  _363
REMARK  160  A    between atoms: _362  and  _365
REMARK  161  A    between atoms: _365  and  _366
REMARK  162  A    between atoms: _369  and  _371
REMARK  163  A    between atoms: _371  and  _372
REMARK  164  A    between atoms: _371  and  _374
REMARK  165  A    between atoms: _374  and  _375
REMARK  166  A    between atoms: _375  and  _376
REMARK  167  A    between atoms: _376  and  _377
REMARK  168  A    between atoms: _386  and  _388
REMARK  169  A    between atoms: _388  and  _389
REMARK  170  A    between atoms: _388  and  _391
REMARK  171  A    between atoms: _391  and  _392
REMARK  172  A    between atoms: _398  and  _400
REMARK  173  A    between atoms: _400  and  _401
REMARK  174  A    between atoms: _400  and  _403
REMARK  175  A    between atoms: _403  and  _404
REMARK  176  A    between atoms: _407  and  _409
REMARK  177  A    between atoms: _409  and  _410
REMARK  178  A    between atoms: _409  and  _412
REMARK  179  A    between atoms: _412  and  _413
REMARK  180  A    between atoms: _413  and  _414
REMARK  181  A    between atoms: _414  and  _415
REMARK                            x       y       z     vdW  Elec       q    Type
REMARK                         _______ _______ _______ _____ _____    ______ ____
ROOT
ATOM      1  O   HOH     1      -6.535  -5.509 -48.149  0.00  0.00    +0.000 OA
ENDROOT
TORSDOF 0
REMARK  Name = ../refined-set-2016/3n9r/3n9r_pocket.pdb
REMARK  181 active torsions:
REMARK  status: ('A' for Active; 'I' for Inactive)
REMARK    1  A    between atoms: _1  and  _3
REMARK    2  A    between atoms: _3  and  _4
REMARK    3  A    between atoms: _7  and  _9
REMARK    4  A    between atoms: _9  and  _10
REMARK    5  A    between atoms: _9  and  _12
REMARK    6  A    between atoms: _12  and  _13
REMARK    7  A    between atoms: _18  and  _20
REMARK    8  A    between atoms: _20  and  _21
REMARK    9  A    between atoms: _20  and  _23
REMARK   10  A    between atoms: _23  and  _24
REMARK   11  A    between atoms: _24  and  _25
REMARK   12  A    between atoms: _30  and  _32
REMARK   13  A    between atoms: _32  and  _33
REMARK   14  A    between atoms: _32  and  _35
REMARK   15  A    between atoms: _35  and  _36
REMARK   16  A    between atoms: _38  and  _40
REMARK   17  A    between atoms: _40  and  _41
REMARK   18  A    between atoms: _40  and  _43
REMARK   19  A    between atoms: _43  and  _44
REMARK   20  A    between atoms: _47  and  _49
REMARK   21  A    between atoms: _49  and  _50
REMARK   22  A    between atoms: _49  and  _52
REMARK   23  A    between atoms: _52  and  _53
REMARK   24  A    between atoms: _57  and  ZN_424
REMARK   25  A    between atoms: _58  and  _60
REMARK   26  A    between atoms: _60  and  _61
REMARK   27  A    between atoms: _60  and  _63
REMARK   28  A    between atoms: _63  and  _64
REMARK   29  A    between atoms: _64  and  _65
REMARK   30  A    between atoms: _67  and  _69
REMARK   31  A    between atoms: _69  and  _70
REMARK   32  A    between atoms: _69  and  _72
REMARK   33  A    between atoms: _72  and  _73
REMARK   34  A    between atoms: _76  and  _78
REMARK   35  A    between atoms: _78  and  _79
REMARK   36  A    between atoms: _78  and  _81
REMARK   37  A    between atoms: _81  and  _82
REMARK   38  A    between atoms: _82  and  _83
REMARK   39  A    between atoms: _86  and  _88
REMARK   40  A    between atoms: _88  and  _89
REMARK   41  A    between atoms: _88  and  _91
REMARK   42  A    between atoms: _91  and  _92
REMARK   43  A    between atoms: _92  and  _93
REMARK   44  A    between atoms: _96  and  _98
REMARK   45  A    between atoms: _98  and  _99
REMARK   46  A    between atoms: _98  and  _101
REMARK   47  A    between atoms: _101  and  _102
REMARK   48  A    between atoms: _105  and  _107
REMARK   49  A    between atoms: _107  and  _108
REMARK   50  A    between atoms: _107  and  _110
REMARK   51  A    between atoms: _110  and  _111
REMARK   52  A    between atoms: _114  and  _116
REMARK   53  A    between atoms: _116  and  _117
REMARK   54  A    between atoms: _116  and  _119
REMARK   55  A    between atoms: _119  and  _120
REMARK   56  A    between atoms: _122  and  _124
REMARK   57  A    between atoms: _124  and  _125
REMARK   58  A    between atoms: _124  and  _127
REMARK   59  A    between atoms: _127  and  _128
REMARK   60  A    between atoms: _132  and  ZN_424
REMARK   61  A    between atoms: _133  and  _135
REMARK   62  A    between atoms: _135  and  _136
REMARK   63  A    between atoms: _138  and  _140
REMARK   64  A    between atoms: _140  and  _141
REMARK   65  A    between atoms: _144  and  _146
REMARK   66  A    between atoms: _146  and  _147
REMARK   67  A    between atoms: _146  and  _149
REMARK   68  A    between atoms: _149  and  _150
REMARK   69  A    between atoms: _156  and  _158
REMARK   70  A    between atoms: _158  and  _159
REMARK   71  A    between atoms: _158  and  _161
REMARK   72  A    between atoms: _161  and  _162
REMARK   73  A    between atoms: _162  and  _163
REMARK   74  A    between atoms: _163  and  _164
REMARK   75  A    between atoms: _164  and  _165
REMARK   76  A    between atoms: _169  and  _171
REMARK   77  A    between atoms: _171  and  _172
REMARK   78  A    between atoms: _171  and  _174
REMARK   79  A    between atoms: _177  and  _179
REMARK   80  A    between atoms: _179  and  _180
REMARK   81  A    between atoms: _179  and  _182
REMARK   82  A    between atoms: _182  and  _183
REMARK   83  A    between atoms: _186  and  _188
REMARK   84  A    between atoms: _188  and  _189
REMARK   85  A    between atoms: _188  and  _191
REMARK   86  A    between atoms: _191  and  _192
REMARK   87  A    between atoms: _193  and  ZN_424
REMARK   88  A    between atoms: _197  and  _199
REMARK   89  A    between atoms: _199  and  _200
REMARK   90  A    between atoms: _202  and  _204
REMARK   91  A    between atoms: _204  and  _205
REMARK   92  A    between atoms: _208  and  _210
REMARK   93  A    between atoms: _210  and  _211
REMARK   94  A    between atoms: _210  and  _213
REMARK   95  A    between atoms: _213  and  _214
REMARK   96  A    between atoms: _216  and  _218
REMARK   97  A    between atoms: _218  and  _219
REMARK   98  A    between atoms: _222  and  _224
REMARK   99  A    between atoms: _224  and  _225
REMARK  100  A    between atoms: _224  and  _227
REMARK  101  A    between atoms: _227  and  _228
REMARK  102  A    between atoms: _231  and  _233
REMARK  103  A    between atoms: _233  and  _234
REMARK  104  A    between atoms: _233  and  _236
REMARK  105  A    between atoms: _236  and  _237
REMARK  106  A    between atoms: _237  and  _238
REMARK  107  A    between atoms: _238  and  _239
REMARK  108  A    between atoms: _239  and  _240
REMARK  109  A    between atoms: _244  and  _246
REMARK  110  A    between atoms: _246  and  _247
REMARK  111  A    between atoms: _249  and  _251
REMARK  112  A    between atoms: _251  and  _252
REMARK  113  A    between atoms: _251  and  _254
REMARK  114  A    between atoms: _257  and  _259
REMARK  115  A    between atoms: _259  and  _260
REMARK  116  A    between atoms: _259  and  _262
REMARK  117  A    between atoms: _262  and  _263
REMARK  118  A    between atoms: _266  and  _268
REMARK  119  A    between atoms: _268  and  _269
REMARK  120  A    between atoms: _268  and  _271
REMARK  121  A    between atoms: _271  and  _272
REMARK  122  A    between atoms: _272  and  _273
REMARK  123  A    between atoms: _273  and  _274
REMARK  124  A    between atoms: _274  and  _275
REMARK  125  A    between atoms: _279  and  _281
REMARK  126  A    between atoms: _281  and  _282
REMARK  127  A    between atoms: _281  and  _284
REMARK  128  A    between atoms: _287  and  _289
REMARK  129  A    between atoms: _289  and  _290
REMARK  130  A    between atoms: _289  and  _292
REMARK  131  A    between atoms: _292  and  _293
REMARK  132  A    between atoms: _298  and  _300
REMARK  133  A    between atoms: _300  and  _301
REMARK  134  A    between atoms: _300  and  _303
REMARK  135  A    between atoms: _303  and  _304
REMARK  136  A    between atoms: _307  and  _309
REMARK  137  A    between atoms: _309  and  _310
REMARK  138  A    between atoms: _309  and  _312
REMARK  139  A    between atoms: _312  and  _313
REMARK  140  A    between atoms: _316  and  _318
REMARK  141  A    between atoms: _318  and  _319
REMARK  142  A    between atoms: _318  and  _321
REMARK  143  A    between atoms: _321  and  _322
REMARK  144  A    between atoms: _325  and  _327
REMARK  145  A    between atoms: _327  and  _328
REMARK  146  A    between atoms: _327  and  _330
REMARK  147  A    between atoms: _330  and  _331
REMARK  148  A    between atoms: _334  and  _336
REMARK  149  A    between atoms: _336  and  _337
REMARK  150  A    between atoms: _336  and  _339
REMARK  151  A    between atoms: _339  and  _340
REMARK  152  A    between atoms: _343  and  _345
REMARK  153  A    between atoms: _345  and  _346
REMARK  154  A    between atoms: _345  and  _348
REMARK  155  A    between atoms: _348  and  _349
REMARK  156  A    between atoms: _349  and  _350
REMARK  157  A    between atoms: _350  and  _351
REMARK  158  A    between atoms: _360  and  _362
REMARK  159  A    between atoms: _362  and  _363
REMARK  160  A    between atoms: _362  and  _365
REMARK  161  A    between atoms: _365  and  _366
REMARK  162  A    between atoms: _369  and  _371
REMARK  163  A    between atoms: _371  and  _372
REMARK  164  A    between atoms: _371  and  _374
REMARK  165  A    between atoms: _374  and  _375
REMARK  166  A    between atoms: _375  and  _376
REMARK  167  A    between atoms: _376  and  _377
REMARK  168  A    between atoms: _386  and  _388
REMARK  169  A    between atoms: _388  and  _389
REMARK  170  A    between atoms: _388  and  _391
REMARK  171  A    between atoms: _391  and  _392
REMARK  172  A    between atoms: _398  and  _400
REMARK  173  A    between atoms: _400  and  _401
REMARK  174  A    between atoms: _400  and  _403
REMARK  175  A    between atoms: _403  and  _404
REMARK  176  A    between atoms: _407  and  _409
REMARK  177  A    between atoms: _409  and  _410
REMARK  178  A    between atoms: _409  and  _412
REMARK  179  A    between atoms: _412  and  _413
REMARK  180  A    between atoms: _413  and  _414
REMARK  181  A    between atoms: _414  and  _415
REMARK                            x       y       z     vdW  Elec       q    Type
REMARK                         _______ _______ _______ _____ _____    ______ ____
ROOT
ATOM      1  O   HOH     1      -3.537  -5.381 -39.637  0.00  0.00    +0.000 OA
ENDROOT
TORSDOF 0
REMARK  Name = ../refined-set-2016/3n9r/3n9r_pocket.pdb
REMARK  181 active torsions:
REMARK  status: ('A' for Active; 'I' for Inactive)
REMARK    1  A    between atoms: _1  and  _3
REMARK    2  A    between atoms: _3  and  _4
REMARK    3  A    between atoms: _7  and  _9
REMARK    4  A    between atoms: _9  and  _10
REMARK    5  A    between atoms: _9  and  _12
REMARK    6  A    between atoms: _12  and  _13
REMARK    7  A    between atoms: _18  and  _20
REMARK    8  A    between atoms: _20  and  _21
REMARK    9  A    between atoms: _20  and  _23
REMARK   10  A    between atoms: _23  and  _24
REMARK   11  A    between atoms: _24  and  _25
REMARK   12  A    between atoms: _30  and  _32
REMARK   13  A    between atoms: _32  and  _33
REMARK   14  A    between atoms: _32  and  _35
REMARK   15  A    between atoms: _35  and  _36
REMARK   16  A    between atoms: _38  and  _40
REMARK   17  A    between atoms: _40  and  _41
REMARK   18  A    between atoms: _40  and  _43
REMARK   19  A    between atoms: _43  and  _44
REMARK   20  A    between atoms: _47  and  _49
REMARK   21  A    between atoms: _49  and  _50
REMARK   22  A    between atoms: _49  and  _52
REMARK   23  A    between atoms: _52  and  _53
REMARK   24  A    between atoms: _57  and  ZN_424
REMARK   25  A    between atoms: _58  and  _60
REMARK   26  A    between atoms: _60  and  _61
REMARK   27  A    between atoms: _60  and  _63
REMARK   28  A    between atoms: _63  and  _64
REMARK   29  A    between atoms: _64  and  _65
REMARK   30  A    between atoms: _67  and  _69
REMARK   31  A    between atoms: _69  and  _70
REMARK   32  A    between atoms: _69  and  _72
REMARK   33  A    between atoms: _72  and  _73
REMARK   34  A    between atoms: _76  and  _78
REMARK   35  A    between atoms: _78  and  _79
REMARK   36  A    between atoms: _78  and  _81
REMARK   37  A    between atoms: _81  and  _82
REMARK   38  A    between atoms: _82  and  _83
REMARK   39  A    between atoms: _86  and  _88
REMARK   40  A    between atoms: _88  and  _89
REMARK   41  A    between atoms: _88  and  _91
REMARK   42  A    between atoms: _91  and  _92
REMARK   43  A    between atoms: _92  and  _93
REMARK   44  A    between atoms: _96  and  _98
REMARK   45  A    between atoms: _98  and  _99
REMARK   46  A    between atoms: _98  and  _101
REMARK   47  A    between atoms: _101  and  _102
REMARK   48  A    between atoms: _105  and  _107
REMARK   49  A    between atoms: _107  and  _108
REMARK   50  A    between atoms: _107  and  _110
REMARK   51  A    between atoms: _110  and  _111
REMARK   52  A    between atoms: _114  and  _116
REMARK   53  A    between atoms: _116  and  _117
REMARK   54  A    between atoms: _116  and  _119
REMARK   55  A    between atoms: _119  and  _120
REMARK   56  A    between atoms: _122  and  _124
REMARK   57  A    between atoms: _124  and  _125
REMARK   58  A    between atoms: _124  and  _127
REMARK   59  A    between atoms: _127  and  _128
REMARK   60  A    between atoms: _132  and  ZN_424
REMARK   61  A    between atoms: _133  and  _135
REMARK   62  A    between atoms: _135  and  _136
REMARK   63  A    between atoms: _138  and  _140
REMARK   64  A    between atoms: _140  and  _141
REMARK   65  A    between atoms: _144  and  _146
REMARK   66  A    between atoms: _146  and  _147
REMARK   67  A    between atoms: _146  and  _149
REMARK   68  A    between atoms: _149  and  _150
REMARK   69  A    between atoms: _156  and  _158
REMARK   70  A    between atoms: _158  and  _159
REMARK   71  A    between atoms: _158  and  _161
REMARK   72  A    between atoms: _161  and  _162
REMARK   73  A    between atoms: _162  and  _163
REMARK   74  A    between atoms: _163  and  _164
REMARK   75  A    between atoms: _164  and  _165
REMARK   76  A    between atoms: _169  and  _171
REMARK   77  A    between atoms: _171  and  _172
REMARK   78  A    between atoms: _171  and  _174
REMARK   79  A    between atoms: _177  and  _179
REMARK   80  A    between atoms: _179  and  _180
REMARK   81  A    between atoms: _179  and  _182
REMARK   82  A    between atoms: _182  and  _183
REMARK   83  A    between atoms: _186  and  _188
REMARK   84  A    between atoms: _188  and  _189
REMARK   85  A    between atoms: _188  and  _191
REMARK   86  A    between atoms: _191  and  _192
REMARK   87  A    between atoms: _193  and  ZN_424
REMARK   88  A    between atoms: _197  and  _199
REMARK   89  A    between atoms: _199  and  _200
REMARK   90  A    between atoms: _202  and  _204
REMARK   91  A    between atoms: _204  and  _205
REMARK   92  A    between atoms: _208  and  _210
REMARK   93  A    between atoms: _210  and  _211
REMARK   94  A    between atoms: _210  and  _213
REMARK   95  A    between atoms: _213  and  _214
REMARK   96  A    between atoms: _216  and  _218
REMARK   97  A    between atoms: _218  and  _219
REMARK   98  A    between atoms: _222  and  _224
REMARK   99  A    between atoms: _224  and  _225
REMARK  100  A    between atoms: _224  and  _227
REMARK  101  A    between atoms: _227  and  _228
REMARK  102  A    between atoms: _231  and  _233
REMARK  103  A    between atoms: _233  and  _234
REMARK  104  A    between atoms: _233  and  _236
REMARK  105  A    between atoms: _236  and  _237
REMARK  106  A    between atoms: _237  and  _238
REMARK  107  A    between atoms: _238  and  _239
REMARK  108  A    between atoms: _239  and  _240
REMARK  109  A    between atoms: _244  and  _246
REMARK  110  A    between atoms: _246  and  _247
REMARK  111  A    between atoms: _249  and  _251
REMARK  112  A    between atoms: _251  and  _252
REMARK  113  A    between atoms: _251  and  _254
REMARK  114  A    between atoms: _257  and  _259
REMARK  115  A    between atoms: _259  and  _260
REMARK  116  A    between atoms: _259  and  _262
REMARK  117  A    between atoms: _262  and  _263
REMARK  118  A    between atoms: _266  and  _268
REMARK  119  A    between atoms: _268  and  _269
REMARK  120  A    between atoms: _268  and  _271
REMARK  121  A    between atoms: _271  and  _272
REMARK  122  A    between atoms: _272  and  _273
REMARK  123  A    between atoms: _273  and  _274
REMARK  124  A    between atoms: _274  and  _275
REMARK  125  A    between atoms: _279  and  _281
REMARK  126  A    between atoms: _281  and  _282
REMARK  127  A    between atoms: _281  and  _284
REMARK  128  A    between atoms: _287  and  _289
REMARK  129  A    between atoms: _289  and  _290
REMARK  130  A    between atoms: _289  and  _292
REMARK  131  A    between atoms: _292  and  _293
REMARK  132  A    between atoms: _298  and  _300
REMARK  133  A    between atoms: _300  and  _301
REMARK  134  A    between atoms: _300  and  _303
REMARK  135  A    between atoms: _303  and  _304
REMARK  136  A    between atoms: _307  and  _309
REMARK  137  A    between atoms: _309  and  _310
REMARK  138  A    between atoms: _309  and  _312
REMARK  139  A    between atoms: _312  and  _313
REMARK  140  A    between atoms: _316  and  _318
REMARK  141  A    between atoms: _318  and  _319
REMARK  142  A    between atoms: _318  and  _321
REMARK  143  A    between atoms: _321  and  _322
REMARK  144  A    between atoms: _325  and  _327
REMARK  145  A    between atoms: _327  and  _328
REMARK  146  A    between atoms: _327  and  _330
REMARK  147  A    between atoms: _330  and  _331
REMARK  148  A    between atoms: _334  and  _336
REMARK  149  A    between atoms: _336  and  _337
REMARK  150  A    between atoms: _336  and  _339
REMARK  151  A    between atoms: _339  and  _340
REMARK  152  A    between atoms: _343  and  _345
REMARK  153  A    between atoms: _345  and  _346
REMARK  154  A    between atoms: _345  and  _348
REMARK  155  A    between atoms: _348  and  _349
REMARK  156  A    between atoms: _349  and  _350
REMARK  157  A    between atoms: _350  and  _351
REMARK  158  A    between atoms: _360  and  _362
REMARK  159  A    between atoms: _362  and  _363
REMARK  160  A    between atoms: _362  and  _365
REMARK  161  A    between atoms: _365  and  _366
REMARK  162  A    between atoms: _369  and  _371
REMARK  163  A    between atoms: _371  and  _372
REMARK  164  A    between atoms: _371  and  _374
REMARK  165  A    between atoms: _374  and  _375
REMARK  166  A    between atoms: _375  and  _376
REMARK  167  A    between atoms: _376  and  _377
REMARK  168  A    between atoms: _386  and  _388
REMARK  169  A    between atoms: _388  and  _389
REMARK  170  A    between atoms: _388  and  _391
REMARK  171  A    between atoms: _391  and  _392
REMARK  172  A    between atoms: _398  and  _400
REMARK  173  A    between atoms: _400  and  _401
REMARK  174  A    between atoms: _400  and  _403
REMARK  175  A    between atoms: _403  and  _404
REMARK  176  A    between atoms: _407  and  _409
REMARK  177  A    between atoms: _409  and  _410
REMARK  178  A    between atoms: _409  and  _412
REMARK  179  A    between atoms: _412  and  _413
REMARK  180  A    between atoms: _413  and  _414
REMARK  181  A    between atoms: _414  and  _415
REMARK                            x       y       z     vdW  Elec       q    Type
REMARK                         _______ _______ _______ _____ _____    ______ ____
ROOT
ATOM      1  O   HOH     1      -3.670   1.853 -47.320  0.00  0.00    +0.000 OA
ENDROOT
TORSDOF 0
REMARK  Name = ../refined-set-2016/3n9r/3n9r_pocket.pdb
REMARK  181 active torsions:
REMARK  status: ('A' for Active; 'I' for Inactive)
REMARK    1  A    between atoms: _1  and  _3
REMARK    2  A    between atoms: _3  and  _4
REMARK    3  A    between atoms: _7  and  _9
REMARK    4  A    between atoms: _9  and  _10
REMARK    5  A    between atoms: _9  and  _12
REMARK    6  A    between atoms: _12  and  _13
REMARK    7  A    between atoms: _18  and  _20
REMARK    8  A    between atoms: _20  and  _21
REMARK    9  A    between atoms: _20  and  _23
REMARK   10  A    between atoms: _23  and  _24
REMARK   11  A    between atoms: _24  and  _25
REMARK   12  A    between atoms: _30  and  _32
REMARK   13  A    between atoms: _32  and  _33
REMARK   14  A    between atoms: _32  and  _35
REMARK   15  A    between atoms: _35  and  _36
REMARK   16  A    between atoms: _38  and  _40
REMARK   17  A    between atoms: _40  and  _41
REMARK   18  A    between atoms: _40  and  _43
REMARK   19  A    between atoms: _43  and  _44
REMARK   20  A    between atoms: _47  and  _49
REMARK   21  A    between atoms: _49  and  _50
REMARK   22  A    between atoms: _49  and  _52
REMARK   23  A    between atoms: _52  and  _53
REMARK   24  A    between atoms: _57  and  ZN_424
REMARK   25  A    between atoms: _58  and  _60
REMARK   26  A    between atoms: _60  and  _61
REMARK   27  A    between atoms: _60  and  _63
REMARK   28  A    between atoms: _63  and  _64
REMARK   29  A    between atoms: _64  and  _65
REMARK   30  A    between atoms: _67  and  _69
REMARK   31  A    between atoms: _69  and  _70
REMARK   32  A    between atoms: _69  and  _72
REMARK   33  A    between atoms: _72  and  _73
REMARK   34  A    between atoms: _76  and  _78
REMARK   35  A    between atoms: _78  and  _79
REMARK   36  A    between atoms: _78  and  _81
REMARK   37  A    between atoms: _81  and  _82
REMARK   38  A    between atoms: _82  and  _83
REMARK   39  A    between atoms: _86  and  _88
REMARK   40  A    between atoms: _88  and  _89
REMARK   41  A    between atoms: _88  and  _91
REMARK   42  A    between atoms: _91  and  _92
REMARK   43  A    between atoms: _92  and  _93
REMARK   44  A    between atoms: _96  and  _98
REMARK   45  A    between atoms: _98  and  _99
REMARK   46  A    between atoms: _98  and  _101
REMARK   47  A    between atoms: _101  and  _102
REMARK   48  A    between atoms: _105  and  _107
REMARK   49  A    between atoms: _107  and  _108
REMARK   50  A    between atoms: _107  and  _110
REMARK   51  A    between atoms: _110  and  _111
REMARK   52  A    between atoms: _114  and  _116
REMARK   53  A    between atoms: _116  and  _117
REMARK   54  A    between atoms: _116  and  _119
REMARK   55  A    between atoms: _119  and  _120
REMARK   56  A    between atoms: _122  and  _124
REMARK   57  A    between atoms: _124  and  _125
REMARK   58  A    between atoms: _124  and  _127
REMARK   59  A    between atoms: _127  and  _128
REMARK   60  A    between atoms: _132  and  ZN_424
REMARK   61  A    between atoms: _133  and  _135
REMARK   62  A    between atoms: _135  and  _136
REMARK   63  A    between atoms: _138  and  _140
REMARK   64  A    between atoms: _140  and  _141
REMARK   65  A    between atoms: _144  and  _146
REMARK   66  A    between atoms: _146  and  _147
REMARK   67  A    between atoms: _146  and  _149
REMARK   68  A    between atoms: _149  and  _150
REMARK   69  A    between atoms: _156  and  _158
REMARK   70  A    between atoms: _158  and  _159
REMARK   71  A    between atoms: _158  and  _161
REMARK   72  A    between atoms: _161  and  _162
REMARK   73  A    between atoms: _162  and  _163
REMARK   74  A    between atoms: _163  and  _164
REMARK   75  A    between atoms: _164  and  _165
REMARK   76  A    between atoms: _169  and  _171
REMARK   77  A    between atoms: _171  and  _172
REMARK   78  A    between atoms: _171  and  _174
REMARK   79  A    between atoms: _177  and  _179
REMARK   80  A    between atoms: _179  and  _180
REMARK   81  A    between atoms: _179  and  _182
REMARK   82  A    between atoms: _182  and  _183
REMARK   83  A    between atoms: _186  and  _188
REMARK   84  A    between atoms: _188  and  _189
REMARK   85  A    between atoms: _188  and  _191
REMARK   86  A    between atoms: _191  and  _192
REMARK   87  A    between atoms: _193  and  ZN_424
REMARK   88  A    between atoms: _197  and  _199
REMARK   89  A    between atoms: _199  and  _200
REMARK   90  A    between atoms: _202  and  _204
REMARK   91  A    between atoms: _204  and  _205
REMARK   92  A    between atoms: _208  and  _210
REMARK   93  A    between atoms: _210  and  _211
REMARK   94  A    between atoms: _210  and  _213
REMARK   95  A    between atoms: _213  and  _214
REMARK   96  A    between atoms: _216  and  _218
REMARK   97  A    between atoms: _218  and  _219
REMARK   98  A    between atoms: _222  and  _224
REMARK   99  A    between atoms: _224  and  _225
REMARK  100  A    between atoms: _224  and  _227
REMARK  101  A    between atoms: _227  and  _228
REMARK  102  A    between atoms: _231  and  _233
REMARK  103  A    between atoms: _233  and  _234
REMARK  104  A    between atoms: _233  and  _236
REMARK  105  A    between atoms: _236  and  _237
REMARK  106  A    between atoms: _237  and  _238
REMARK  107  A    between atoms: _238  and  _239
REMARK  108  A    between atoms: _239  and  _240
REMARK  109  A    between atoms: _244  and  _246
REMARK  110  A    between atoms: _246  and  _247
REMARK  111  A    between atoms: _249  and  _251
REMARK  112  A    between atoms: _251  and  _252
REMARK  113  A    between atoms: _251  and  _254
REMARK  114  A    between atoms: _257  and  _259
REMARK  115  A    between atoms: _259  and  _260
REMARK  116  A    between atoms: _259  and  _262
REMARK  117  A    between atoms: _262  and  _263
REMARK  118  A    between atoms: _266  and  _268
REMARK  119  A    between atoms: _268  and  _269
REMARK  120  A    between atoms: _268  and  _271
REMARK  121  A    between atoms: _271  and  _272
REMARK  122  A    between atoms: _272  and  _273
REMARK  123  A    between atoms: _273  and  _274
REMARK  124  A    between atoms: _274  and  _275
REMARK  125  A    between atoms: _279  and  _281
REMARK  126  A    between atoms: _281  and  _282
REMARK  127  A    between atoms: _281  and  _284
REMARK  128  A    between atoms: _287  and  _289
REMARK  129  A    between atoms: _289  and  _290
REMARK  130  A    between atoms: _289  and  _292
REMARK  131  A    between atoms: _292  and  _293
REMARK  132  A    between atoms: _298  and  _300
REMARK  133  A    between atoms: _300  and  _301
REMARK  134  A    between atoms: _300  and  _303
REMARK  135  A    between atoms: _303  and  _304
REMARK  136  A    between atoms: _307  and  _309
REMARK  137  A    between atoms: _309  and  _310
REMARK  138  A    between atoms: _309  and  _312
REMARK  139  A    between atoms: _312  and  _313
REMARK  140  A    between atoms: _316  and  _318
REMARK  141  A    between atoms: _318  and  _319
REMARK  142  A    between atoms: _318  and  _321
REMARK  143  A    between atoms: _321  and  _322
REMARK  144  A    between atoms: _325  and  _327
REMARK  145  A    between atoms: _327  and  _328
REMARK  146  A    between atoms: _327  and  _330
REMARK  147  A    between atoms: _330  and  _331
REMARK  148  A    between atoms: _334  and  _336
REMARK  149  A    between atoms: _336  and  _337
REMARK  150  A    between atoms: _336  and  _339
REMARK  151  A    between atoms: _339  and  _340
REMARK  152  A    between atoms: _343  and  _345
REMARK  153  A    between atoms: _345  and  _346
REMARK  154  A    between atoms: _345  and  _348
REMARK  155  A    between atoms: _348  and  _349
REMARK  156  A    between atoms: _349  and  _350
REMARK  157  A    between atoms: _350  and  _351
REMARK  158  A    between atoms: _360  and  _362
REMARK  159  A    between atoms: _362  and  _363
REMARK  160  A    between atoms: _362  and  _365
REMARK  161  A    between atoms: _365  and  _366
REMARK  162  A    between atoms: _369  and  _371
REMARK  163  A    between atoms: _371  and  _372
REMARK  164  A    between atoms: _371  and  _374
REMARK  165  A    between atoms: _374  and  _375
REMARK  166  A    between atoms: _375  and  _376
REMARK  167  A    between atoms: _376  and  _377
REMARK  168  A    between atoms: _386  and  _388
REMARK  169  A    between atoms: _388  and  _389
REMARK  170  A    between atoms: _388  and  _391
REMARK  171  A    between atoms: _391  and  _392
REMARK  172  A    between atoms: _398  and  _400
REMARK  173  A    between atoms: _400  and  _401
REMARK  174  A    between atoms: _400  and  _403
REMARK  175  A    between atoms: _403  and  _404
REMARK  176  A    between atoms: _407  and  _409
REMARK  177  A    between atoms: _409  and  _410
REMARK  178  A    between atoms: _409  and  _412
REMARK  179  A    between atoms: _412  and  _413
REMARK  180  A    between atoms: _413  and  _414
REMARK  181  A    between atoms: _414  and  _415
REMARK                            x       y       z     vdW  Elec       q    Type
REMARK                         _______ _______ _______ _____ _____    ______ ____
ROOT
ATOM      1  O   HOH     1      -5.110   0.155 -49.881  0.00  0.00    +0.000 OA
ENDROOT
TORSDOF 0
REMARK  Name = ../refined-set-2016/3n9r/3n9r_pocket.pdb
REMARK  181 active torsions:
REMARK  status: ('A' for Active; 'I' for Inactive)
REMARK    1  A    between atoms: _1  and  _3
REMARK    2  A    between atoms: _3  and  _4
REMARK    3  A    between atoms: _7  and  _9
REMARK    4  A    between atoms: _9  and  _10
REMARK    5  A    between atoms: _9  and  _12
REMARK    6  A    between atoms: _12  and  _13
REMARK    7  A    between atoms: _18  and  _20
REMARK    8  A    between atoms: _20  and  _21
REMARK    9  A    between atoms: _20  and  _23
REMARK   10  A    between atoms: _23  and  _24
REMARK   11  A    between atoms: _24  and  _25
REMARK   12  A    between atoms: _30  and  _32
REMARK   13  A    between atoms: _32  and  _33
REMARK   14  A    between atoms: _32  and  _35
REMARK   15  A    between atoms: _35  and  _36
REMARK   16  A    between atoms: _38  and  _40
REMARK   17  A    between atoms: _40  and  _41
REMARK   18  A    between atoms: _40  and  _43
REMARK   19  A    between atoms: _43  and  _44
REMARK   20  A    between atoms: _47  and  _49
REMARK   21  A    between atoms: _49  and  _50
REMARK   22  A    between atoms: _49  and  _52
REMARK   23  A    between atoms: _52  and  _53
REMARK   24  A    between atoms: _57  and  ZN_424
REMARK   25  A    between atoms: _58  and  _60
REMARK   26  A    between atoms: _60  and  _61
REMARK   27  A    between atoms: _60  and  _63
REMARK   28  A    between atoms: _63  and  _64
REMARK   29  A    between atoms: _64  and  _65
REMARK   30  A    between atoms: _67  and  _69
REMARK   31  A    between atoms: _69  and  _70
REMARK   32  A    between atoms: _69  and  _72
REMARK   33  A    between atoms: _72  and  _73
REMARK   34  A    between atoms: _76  and  _78
REMARK   35  A    between atoms: _78  and  _79
REMARK   36  A    between atoms: _78  and  _81
REMARK   37  A    between atoms: _81  and  _82
REMARK   38  A    between atoms: _82  and  _83
REMARK   39  A    between atoms: _86  and  _88
REMARK   40  A    between atoms: _88  and  _89
REMARK   41  A    between atoms: _88  and  _91
REMARK   42  A    between atoms: _91  and  _92
REMARK   43  A    between atoms: _92  and  _93
REMARK   44  A    between atoms: _96  and  _98
REMARK   45  A    between atoms: _98  and  _99
REMARK   46  A    between atoms: _98  and  _101
REMARK   47  A    between atoms: _101  and  _102
REMARK   48  A    between atoms: _105  and  _107
REMARK   49  A    between atoms: _107  and  _108
REMARK   50  A    between atoms: _107  and  _110
REMARK   51  A    between atoms: _110  and  _111
REMARK   52  A    between atoms: _114  and  _116
REMARK   53  A    between atoms: _116  and  _117
REMARK   54  A    between atoms: _116  and  _119
REMARK   55  A    between atoms: _119  and  _120
REMARK   56  A    between atoms: _122  and  _124
REMARK   57  A    between atoms: _124  and  _125
REMARK   58  A    between atoms: _124  and  _127
REMARK   59  A    between atoms: _127  and  _128
REMARK   60  A    between atoms: _132  and  ZN_424
REMARK   61  A    between atoms: _133  and  _135
REMARK   62  A    between atoms: _135  and  _136
REMARK   63  A    between atoms: _138  and  _140
REMARK   64  A    between atoms: _140  and  _141
REMARK   65  A    between atoms: _144  and  _146
REMARK   66  A    between atoms: _146  and  _147
REMARK   67  A    between atoms: _146  and  _149
REMARK   68  A    between atoms: _149  and  _150
REMARK   69  A    between atoms: _156  and  _158
REMARK   70  A    between atoms: _158  and  _159
REMARK   71  A    between atoms: _158  and  _161
REMARK   72  A    between atoms: _161  and  _162
REMARK   73  A    between atoms: _162  and  _163
REMARK   74  A    between atoms: _163  and  _164
REMARK   75  A    between atoms: _164  and  _165
REMARK   76  A    between atoms: _169  and  _171
REMARK   77  A    between atoms: _171  and  _172
REMARK   78  A    between atoms: _171  and  _174
REMARK   79  A    between atoms: _177  and  _179
REMARK   80  A    between atoms: _179  and  _180
REMARK   81  A    between atoms: _179  and  _182
REMARK   82  A    between atoms: _182  and  _183
REMARK   83  A    between atoms: _186  and  _188
REMARK   84  A    between atoms: _188  and  _189
REMARK   85  A    between atoms: _188  and  _191
REMARK   86  A    between atoms: _191  and  _192
REMARK   87  A    between atoms: _193  and  ZN_424
REMARK   88  A    between atoms: _197  and  _199
REMARK   89  A    between atoms: _199  and  _200
REMARK   90  A    between atoms: _202  and  _204
REMARK   91  A    between atoms: _204  and  _205
REMARK   92  A    between atoms: _208  and  _210
REMARK   93  A    between atoms: _210  and  _211
REMARK   94  A    between atoms: _210  and  _213
REMARK   95  A    between atoms: _213  and  _214
REMARK   96  A    between atoms: _216  and  _218
REMARK   97  A    between atoms: _218  and  _219
REMARK   98  A    between atoms: _222  and  _224
REMARK   99  A    between atoms: _224  and  _225
REMARK  100  A    between atoms: _224  and  _227
REMARK  101  A    between atoms: _227  and  _228
REMARK  102  A    between atoms: _231  and  _233
REMARK  103  A    between atoms: _233  and  _234
REMARK  104  A    between atoms: _233  and  _236
REMARK  105  A    between atoms: _236  and  _237
REMARK  106  A    between atoms: _237  and  _238
REMARK  107  A    between atoms: _238  and  _239
REMARK  108  A    between atoms: _239  and  _240
REMARK  109  A    between atoms: _244  and  _246
REMARK  110  A    between atoms: _246  and  _247
REMARK  111  A    between atoms: _249  and  _251
REMARK  112  A    between atoms: _251  and  _252
REMARK  113  A    between atoms: _251  and  _254
REMARK  114  A    between atoms: _257  and  _259
REMARK  115  A    between atoms: _259  and  _260
REMARK  116  A    between atoms: _259  and  _262
REMARK  117  A    between atoms: _262  and  _263
REMARK  118  A    between atoms: _266  and  _268
REMARK  119  A    between atoms: _268  and  _269
REMARK  120  A    between atoms: _268  and  _271
REMARK  121  A    between atoms: _271  and  _272
REMARK  122  A    between atoms: _272  and  _273
REMARK  123  A    between atoms: _273  and  _274
REMARK  124  A    between atoms: _274  and  _275
REMARK  125  A    between atoms: _279  and  _281
REMARK  126  A    between atoms: _281  and  _282
REMARK  127  A    between atoms: _281  and  _284
REMARK  128  A    between atoms: _287  and  _289
REMARK  129  A    between atoms: _289  and  _290
REMARK  130  A    between atoms: _289  and  _292
REMARK  131  A    between atoms: _292  and  _293
REMARK  132  A    between atoms: _298  and  _300
REMARK  133  A    between atoms: _300  and  _301
REMARK  134  A    between atoms: _300  and  _303
REMARK  135  A    between atoms: _303  and  _304
REMARK  136  A    between atoms: _307  and  _309
REMARK  137  A    between atoms: _309  and  _310
REMARK  138  A    between atoms: _309  and  _312
REMARK  139  A    between atoms: _312  and  _313
REMARK  140  A    between atoms: _316  and  _318
REMARK  141  A    between atoms: _318  and  _319
REMARK  142  A    between atoms: _318  and  _321
REMARK  143  A    between atoms: _321  and  _322
REMARK  144  A    between atoms: _325  and  _327
REMARK  145  A    between atoms: _327  and  _328
REMARK  146  A    between atoms: _327  and  _330
REMARK  147  A    between atoms: _330  and  _331
REMARK  148  A    between atoms: _334  and  _336
REMARK  149  A    between atoms: _336  and  _337
REMARK  150  A    between atoms: _336  and  _339
REMARK  151  A    between atoms: _339  and  _340
REMARK  152  A    between atoms: _343  and  _345
REMARK  153  A    between atoms: _345  and  _346
REMARK  154  A    between atoms: _345  and  _348
REMARK  155  A    between atoms: _348  and  _349
REMARK  156  A    between atoms: _349  and  _350
REMARK  157  A    between atoms: _350  and  _351
REMARK  158  A    between atoms: _360  and  _362
REMARK  159  A    between atoms: _362  and  _363
REMARK  160  A    between atoms: _362  and  _365
REMARK  161  A    between atoms: _365  and  _366
REMARK  162  A    between atoms: _369  and  _371
REMARK  163  A    between atoms: _371  and  _372
REMARK  164  A    between atoms: _371  and  _374
REMARK  165  A    between atoms: _374  and  _375
REMARK  166  A    between atoms: _375  and  _376
REMARK  167  A    between atoms: _376  and  _377
REMARK  168  A    between atoms: _386  and  _388
REMARK  169  A    between atoms: _388  and  _389
REMARK  170  A    between atoms: _388  and  _391
REMARK  171  A    between atoms: _391  and  _392
REMARK  172  A    between atoms: _398  and  _400
REMARK  173  A    between atoms: _400  and  _401
REMARK  174  A    between atoms: _400  and  _403
REMARK  175  A    between atoms: _403  and  _404
REMARK  176  A    between atoms: _407  and  _409
REMARK  177  A    between atoms: _409  and  _410
REMARK  178  A    between atoms: _409  and  _412
REMARK  179  A    between atoms: _412  and  _413
REMARK  180  A    between atoms: _413  and  _414
REMARK  181  A    between atoms: _414  and  _415
REMARK                            x       y       z     vdW  Elec       q    Type
REMARK                         _______ _______ _______ _____ _____    ______ ____
ROOT
ATOM      1  O   HOH     1      -5.564  -3.409 -38.002  0.00  0.00    +0.000 OA
ENDROOT
TORSDOF 0
REMARK  Name = ../refined-set-2016/3n9r/3n9r_pocket.pdb
REMARK  181 active torsions:
REMARK  status: ('A' for Active; 'I' for Inactive)
REMARK    1  A    between atoms: _1  and  _3
REMARK    2  A    between atoms: _3  and  _4
REMARK    3  A    between atoms: _7  and  _9
REMARK    4  A    between atoms: _9  and  _10
REMARK    5  A    between atoms: _9  and  _12
REMARK    6  A    between atoms: _12  and  _13
REMARK    7  A    between atoms: _18  and  _20
REMARK    8  A    between atoms: _20  and  _21
REMARK    9  A    between atoms: _20  and  _23
REMARK   10  A    between atoms: _23  and  _24
REMARK   11  A    between atoms: _24  and  _25
REMARK   12  A    between atoms: _30  and  _32
REMARK   13  A    between atoms: _32  and  _33
REMARK   14  A    between atoms: _32  and  _35
REMARK   15  A    between atoms: _35  and  _36
REMARK   16  A    between atoms: _38  and  _40
REMARK   17  A    between atoms: _40  and  _41
REMARK   18  A    between atoms: _40  and  _43
REMARK   19  A    between atoms: _43  and  _44
REMARK   20  A    between atoms: _47  and  _49
REMARK   21  A    between atoms: _49  and  _50
REMARK   22  A    between atoms: _49  and  _52
REMARK   23  A    between atoms: _52  and  _53
REMARK   24  A    between atoms: _57  and  ZN_424
REMARK   25  A    between atoms: _58  and  _60
REMARK   26  A    between atoms: _60  and  _61
REMARK   27  A    between atoms: _60  and  _63
REMARK   28  A    between atoms: _63  and  _64
REMARK   29  A    between atoms: _64  and  _65
REMARK   30  A    between atoms: _67  and  _69
REMARK   31  A    between atoms: _69  and  _70
REMARK   32  A    between atoms: _69  and  _72
REMARK   33  A    between atoms: _72  and  _73
REMARK   34  A    between atoms: _76  and  _78
REMARK   35  A    between atoms: _78  and  _79
REMARK   36  A    between atoms: _78  and  _81
REMARK   37  A    between atoms: _81  and  _82
REMARK   38  A    between atoms: _82  and  _83
REMARK   39  A    between atoms: _86  and  _88
REMARK   40  A    between atoms: _88  and  _89
REMARK   41  A    between atoms: _88  and  _91
REMARK   42  A    between atoms: _91  and  _92
REMARK   43  A    between atoms: _92  and  _93
REMARK   44  A    between atoms: _96  and  _98
REMARK   45  A    between atoms: _98  and  _99
REMARK   46  A    between atoms: _98  and  _101
REMARK   47  A    between atoms: _101  and  _102
REMARK   48  A    between atoms: _105  and  _107
REMARK   49  A    between atoms: _107  and  _108
REMARK   50  A    between atoms: _107  and  _110
REMARK   51  A    between atoms: _110  and  _111
REMARK   52  A    between atoms: _114  and  _116
REMARK   53  A    between atoms: _116  and  _117
REMARK   54  A    between atoms: _116  and  _119
REMARK   55  A    between atoms: _119  and  _120
REMARK   56  A    between atoms: _122  and  _124
REMARK   57  A    between atoms: _124  and  _125
REMARK   58  A    between atoms: _124  and  _127
REMARK   59  A    between atoms: _127  and  _128
REMARK   60  A    between atoms: _132  and  ZN_424
REMARK   61  A    between atoms: _133  and  _135
REMARK   62  A    between atoms: _135  and  _136
REMARK   63  A    between atoms: _138  and  _140
REMARK   64  A    between atoms: _140  and  _141
REMARK   65  A    between atoms: _144  and  _146
REMARK   66  A    between atoms: _146  and  _147
REMARK   67  A    between atoms: _146  and  _149
REMARK   68  A    between atoms: _149  and  _150
REMARK   69  A    between atoms: _156  and  _158
REMARK   70  A    between atoms: _158  and  _159
REMARK   71  A    between atoms: _158  and  _161
REMARK   72  A    between atoms: _161  and  _162
REMARK   73  A    between atoms: _162  and  _163
REMARK   74  A    between atoms: _163  and  _164
REMARK   75  A    between atoms: _164  and  _165
REMARK   76  A    between atoms: _169  and  _171
REMARK   77  A    between atoms: _171  and  _172
REMARK   78  A    between atoms: _171  and  _174
REMARK   79  A    between atoms: _177  and  _179
REMARK   80  A    between atoms: _179  and  _180
REMARK   81  A    between atoms: _179  and  _182
REMARK   82  A    between atoms: _182  and  _183
REMARK   83  A    between atoms: _186  and  _188
REMARK   84  A    between atoms: _188  and  _189
REMARK   85  A    between atoms: _188  and  _191
REMARK   86  A    between atoms: _191  and  _192
REMARK   87  A    between atoms: _193  and  ZN_424
REMARK   88  A    between atoms: _197  and  _199
REMARK   89  A    between atoms: _199  and  _200
REMARK   90  A    between atoms: _202  and  _204
REMARK   91  A    between atoms: _204  and  _205
REMARK   92  A    between atoms: _208  and  _210
REMARK   93  A    between atoms: _210  and  _211
REMARK   94  A    between atoms: _210  and  _213
REMARK   95  A    between atoms: _213  and  _214
REMARK   96  A    between atoms: _216  and  _218
REMARK   97  A    between atoms: _218  and  _219
REMARK   98  A    between atoms: _222  and  _224
REMARK   99  A    between atoms: _224  and  _225
REMARK  100  A    between atoms: _224  and  _227
REMARK  101  A    between atoms: _227  and  _228
REMARK  102  A    between atoms: _231  and  _233
REMARK  103  A    between atoms: _233  and  _234
REMARK  104  A    between atoms: _233  and  _236
REMARK  105  A    between atoms: _236  and  _237
REMARK  106  A    between atoms: _237  and  _238
REMARK  107  A    between atoms: _238  and  _239
REMARK  108  A    between atoms: _239  and  _240
REMARK  109  A    between atoms: _244  and  _246
REMARK  110  A    between atoms: _246  and  _247
REMARK  111  A    between atoms: _249  and  _251
REMARK  112  A    between atoms: _251  and  _252
REMARK  113  A    between atoms: _251  and  _254
REMARK  114  A    between atoms: _257  and  _259
REMARK  115  A    between atoms: _259  and  _260
REMARK  116  A    between atoms: _259  and  _262
REMARK  117  A    between atoms: _262  and  _263
REMARK  118  A    between atoms: _266  and  _268
REMARK  119  A    between atoms: _268  and  _269
REMARK  120  A    between atoms: _268  and  _271
REMARK  121  A    between atoms: _271  and  _272
REMARK  122  A    between atoms: _272  and  _273
REMARK  123  A    between atoms: _273  and  _274
REMARK  124  A    between atoms: _274  and  _275
REMARK  125  A    between atoms: _279  and  _281
REMARK  126  A    between atoms: _281  and  _282
REMARK  127  A    between atoms: _281  and  _284
REMARK  128  A    between atoms: _287  and  _289
REMARK  129  A    between atoms: _289  and  _290
REMARK  130  A    between atoms: _289  and  _292
REMARK  131  A    between atoms: _292  and  _293
REMARK  132  A    between atoms: _298  and  _300
REMARK  133  A    between atoms: _300  and  _301
REMARK  134  A    between atoms: _300  and  _303
REMARK  135  A    between atoms: _303  and  _304
REMARK  136  A    between atoms: _307  and  _309
REMARK  137  A    between atoms: _309  and  _310
REMARK  138  A    between atoms: _309  and  _312
REMARK  139  A    between atoms: _312  and  _313
REMARK  140  A    between atoms: _316  and  _318
REMARK  141  A    between atoms: _318  and  _319
REMARK  142  A    between atoms: _318  and  _321
REMARK  143  A    between atoms: _321  and  _322
REMARK  144  A    between atoms: _325  and  _327
REMARK  145  A    between atoms: _327  and  _328
REMARK  146  A    between atoms: _327  and  _330
REMARK  147  A    between atoms: _330  and  _331
REMARK  148  A    between atoms: _334  and  _336
REMARK  149  A    between atoms: _336  and  _337
REMARK  150  A    between atoms: _336  and  _339
REMARK  151  A    between atoms: _339  and  _340
REMARK  152  A    between atoms: _343  and  _345
REMARK  153  A    between atoms: _345  and  _346
REMARK  154  A    between atoms: _345  and  _348
REMARK  155  A    between atoms: _348  and  _349
REMARK  156  A    between atoms: _349  and  _350
REMARK  157  A    between atoms: _350  and  _351
REMARK  158  A    between atoms: _360  and  _362
REMARK  159  A    between atoms: _362  and  _363
REMARK  160  A    between atoms: _362  and  _365
REMARK  161  A    between atoms: _365  and  _366
REMARK  162  A    between atoms: _369  and  _371
REMARK  163  A    between atoms: _371  and  _372
REMARK  164  A    between atoms: _371  and  _374
REMARK  165  A    between atoms: _374  and  _375
REMARK  166  A    between atoms: _375  and  _376
REMARK  167  A    between atoms: _376  and  _377
REMARK  168  A    between atoms: _386  and  _388
REMARK  169  A    between atoms: _388  and  _389
REMARK  170  A    between atoms: _388  and  _391
REMARK  171  A    between atoms: _391  and  _392
REMARK  172  A    between atoms: _398  and  _400
REMARK  173  A    between atoms: _400  and  _401
REMARK  174  A    between atoms: _400  and  _403
REMARK  175  A    between atoms: _403  and  _404
REMARK  176  A    between atoms: _407  and  _409
REMARK  177  A    between atoms: _409  and  _410
REMARK  178  A    between atoms: _409  and  _412
REMARK  179  A    between atoms: _412  and  _413
REMARK  180  A    between atoms: _413  and  _414
REMARK  181  A    between atoms: _414  and  _415
REMARK                            x       y       z     vdW  Elec       q    Type
REMARK                         _______ _______ _______ _____ _____    ______ ____
ROOT
ATOM      1  O   HOH     1      -2.926  -3.182 -38.372  0.00  0.00    +0.000 OA
ENDROOT
TORSDOF 0
REMARK  Name = ../refined-set-2016/3n9r/3n9r_pocket.pdb
REMARK  181 active torsions:
REMARK  status: ('A' for Active; 'I' for Inactive)
REMARK    1  A    between atoms: _1  and  _3
REMARK    2  A    between atoms: _3  and  _4
REMARK    3  A    between atoms: _7  and  _9
REMARK    4  A    between atoms: _9  and  _10
REMARK    5  A    between atoms: _9  and  _12
REMARK    6  A    between atoms: _12  and  _13
REMARK    7  A    between atoms: _18  and  _20
REMARK    8  A    between atoms: _20  and  _21
REMARK    9  A    between atoms: _20  and  _23
REMARK   10  A    between atoms: _23  and  _24
REMARK   11  A    between atoms: _24  and  _25
REMARK   12  A    between atoms: _30  and  _32
REMARK   13  A    between atoms: _32  and  _33
REMARK   14  A    between atoms: _32  and  _35
REMARK   15  A    between atoms: _35  and  _36
REMARK   16  A    between atoms: _38  and  _40
REMARK   17  A    between atoms: _40  and  _41
REMARK   18  A    between atoms: _40  and  _43
REMARK   19  A    between atoms: _43  and  _44
REMARK   20  A    between atoms: _47  and  _49
REMARK   21  A    between atoms: _49  and  _50
REMARK   22  A    between atoms: _49  and  _52
REMARK   23  A    between atoms: _52  and  _53
REMARK   24  A    between atoms: _57  and  ZN_424
REMARK   25  A    between atoms: _58  and  _60
REMARK   26  A    between atoms: _60  and  _61
REMARK   27  A    between atoms: _60  and  _63
REMARK   28  A    between atoms: _63  and  _64
REMARK   29  A    between atoms: _64  and  _65
REMARK   30  A    between atoms: _67  and  _69
REMARK   31  A    between atoms: _69  and  _70
REMARK   32  A    between atoms: _69  and  _72
REMARK   33  A    between atoms: _72  and  _73
REMARK   34  A    between atoms: _76  and  _78
REMARK   35  A    between atoms: _78  and  _79
REMARK   36  A    between atoms: _78  and  _81
REMARK   37  A    between atoms: _81  and  _82
REMARK   38  A    between atoms: _82  and  _83
REMARK   39  A    between atoms: _86  and  _88
REMARK   40  A    between atoms: _88  and  _89
REMARK   41  A    between atoms: _88  and  _91
REMARK   42  A    between atoms: _91  and  _92
REMARK   43  A    between atoms: _92  and  _93
REMARK   44  A    between atoms: _96  and  _98
REMARK   45  A    between atoms: _98  and  _99
REMARK   46  A    between atoms: _98  and  _101
REMARK   47  A    between atoms: _101  and  _102
REMARK   48  A    between atoms: _105  and  _107
REMARK   49  A    between atoms: _107  and  _108
REMARK   50  A    between atoms: _107  and  _110
REMARK   51  A    between atoms: _110  and  _111
REMARK   52  A    between atoms: _114  and  _116
REMARK   53  A    between atoms: _116  and  _117
REMARK   54  A    between atoms: _116  and  _119
REMARK   55  A    between atoms: _119  and  _120
REMARK   56  A    between atoms: _122  and  _124
REMARK   57  A    between atoms: _124  and  _125
REMARK   58  A    between atoms: _124  and  _127
REMARK   59  A    between atoms: _127  and  _128
REMARK   60  A    between atoms: _132  and  ZN_424
REMARK   61  A    between atoms: _133  and  _135
REMARK   62  A    between atoms: _135  and  _136
REMARK   63  A    between atoms: _138  and  _140
REMARK   64  A    between atoms: _140  and  _141
REMARK   65  A    between atoms: _144  and  _146
REMARK   66  A    between atoms: _146  and  _147
REMARK   67  A    between atoms: _146  and  _149
REMARK   68  A    between atoms: _149  and  _150
REMARK   69  A    between atoms: _156  and  _158
REMARK   70  A    between atoms: _158  and  _159
REMARK   71  A    between atoms: _158  and  _161
REMARK   72  A    between atoms: _161  and  _162
REMARK   73  A    between atoms: _162  and  _163
REMARK   74  A    between atoms: _163  and  _164
REMARK   75  A    between atoms: _164  and  _165
REMARK   76  A    between atoms: _169  and  _171
REMARK   77  A    between atoms: _171  and  _172
REMARK   78  A    between atoms: _171  and  _174
REMARK   79  A    between atoms: _177  and  _179
REMARK   80  A    between atoms: _179  and  _180
REMARK   81  A    between atoms: _179  and  _182
REMARK   82  A    between atoms: _182  and  _183
REMARK   83  A    between atoms: _186  and  _188
REMARK   84  A    between atoms: _188  and  _189
REMARK   85  A    between atoms: _188  and  _191
REMARK   86  A    between atoms: _191  and  _192
REMARK   87  A    between atoms: _193  and  ZN_424
REMARK   88  A    between atoms: _197  and  _199
REMARK   89  A    between atoms: _199  and  _200
REMARK   90  A    between atoms: _202  and  _204
REMARK   91  A    between atoms: _204  and  _205
REMARK   92  A    between atoms: _208  and  _210
REMARK   93  A    between atoms: _210  and  _211
REMARK   94  A    between atoms: _210  and  _213
REMARK   95  A    between atoms: _213  and  _214
REMARK   96  A    between atoms: _216  and  _218
REMARK   97  A    between atoms: _218  and  _219
REMARK   98  A    between atoms: _222  and  _224
REMARK   99  A    between atoms: _224  and  _225
REMARK  100  A    between atoms: _224  and  _227
REMARK  101  A    between atoms: _227  and  _228
REMARK  102  A    between atoms: _231  and  _233
REMARK  103  A    between atoms: _233  and  _234
REMARK  104  A    between atoms: _233  and  _236
REMARK  105  A    between atoms: _236  and  _237
REMARK  106  A    between atoms: _237  and  _238
REMARK  107  A    between atoms: _238  and  _239
REMARK  108  A    between atoms: _239  and  _240
REMARK  109  A    between atoms: _244  and  _246
REMARK  110  A    between atoms: _246  and  _247
REMARK  111  A    between atoms: _249  and  _251
REMARK  112  A    between atoms: _251  and  _252
REMARK  113  A    between atoms: _251  and  _254
REMARK  114  A    between atoms: _257  and  _259
REMARK  115  A    between atoms: _259  and  _260
REMARK  116  A    between atoms: _259  and  _262
REMARK  117  A    between atoms: _262  and  _263
REMARK  118  A    between atoms: _266  and  _268
REMARK  119  A    between atoms: _268  and  _269
REMARK  120  A    between atoms: _268  and  _271
REMARK  121  A    between atoms: _271  and  _272
REMARK  122  A    between atoms: _272  and  _273
REMARK  123  A    between atoms: _273  and  _274
REMARK  124  A    between atoms: _274  and  _275
REMARK  125  A    between atoms: _279  and  _281
REMARK  126  A    between atoms: _281  and  _282
REMARK  127  A    between atoms: _281  and  _284
REMARK  128  A    between atoms: _287  and  _289
REMARK  129  A    between atoms: _289  and  _290
REMARK  130  A    between atoms: _289  and  _292
REMARK  131  A    between atoms: _292  and  _293
REMARK  132  A    between atoms: _298  and  _300
REMARK  133  A    between atoms: _300  and  _301
REMARK  134  A    between atoms: _300  and  _303
REMARK  135  A    between atoms: _303  and  _304
REMARK  136  A    between atoms: _307  and  _309
REMARK  137  A    between atoms: _309  and  _310
REMARK  138  A    between atoms: _309  and  _312
REMARK  139  A    between atoms: _312  and  _313
REMARK  140  A    between atoms: _316  and  _318
REMARK  141  A    between atoms: _318  and  _319
REMARK  142  A    between atoms: _318  and  _321
REMARK  143  A    between atoms: _321  and  _322
REMARK  144  A    between atoms: _325  and  _327
REMARK  145  A    between atoms: _327  and  _328
REMARK  146  A    between atoms: _327  and  _330
REMARK  147  A    between atoms: _330  and  _331
REMARK  148  A    between atoms: _334  and  _336
REMARK  149  A    between atoms: _336  and  _337
REMARK  150  A    between atoms: _336  and  _339
REMARK  151  A    between atoms: _339  and  _340
REMARK  152  A    between atoms: _343  and  _345
REMARK  153  A    between atoms: _345  and  _346
REMARK  154  A    between atoms: _345  and  _348
REMARK  155  A    between atoms: _348  and  _349
REMARK  156  A    between atoms: _349  and  _350
REMARK  157  A    between atoms: _350  and  _351
REMARK  158  A    between atoms: _360  and  _362
REMARK  159  A    between atoms: _362  and  _363
REMARK  160  A    between atoms: _362  and  _365
REMARK  161  A    between atoms: _365  and  _366
REMARK  162  A    between atoms: _369  and  _371
REMARK  163  A    between atoms: _371  and  _372
REMARK  164  A    between atoms: _371  and  _374
REMARK  165  A    between atoms: _374  and  _375
REMARK  166  A    between atoms: _375  and  _376
REMARK  167  A    between atoms: _376  and  _377
REMARK  168  A    between atoms: _386  and  _388
REMARK  169  A    between atoms: _388  and  _389
REMARK  170  A    between atoms: _388  and  _391
REMARK  171  A    between atoms: _391  and  _392
REMARK  172  A    between atoms: _398  and  _400
REMARK  173  A    between atoms: _400  and  _401
REMARK  174  A    between atoms: _400  and  _403
REMARK  175  A    between atoms: _403  and  _404
REMARK  176  A    between atoms: _407  and  _409
REMARK  177  A    between atoms: _409  and  _410
REMARK  178  A    between atoms: _409  and  _412
REMARK  179  A    between atoms: _412  and  _413
REMARK  180  A    between atoms: _413  and  _414
REMARK  181  A    between atoms: _414  and  _415
REMARK                            x       y       z     vdW  Elec       q    Type
REMARK                         _______ _______ _______ _____ _____    ______ ____
ROOT
ATOM      1  O   HOH     1      -0.529  -1.549 -45.087  0.00  0.00    +0.000 OA
ENDROOT
TORSDOF 0
REMARK  Name = ../refined-set-2016/3n9r/3n9r_pocket.pdb
REMARK  181 active torsions:
REMARK  status: ('A' for Active; 'I' for Inactive)
REMARK    1  A    between atoms: _1  and  _3
REMARK    2  A    between atoms: _3  and  _4
REMARK    3  A    between atoms: _7  and  _9
REMARK    4  A    between atoms: _9  and  _10
REMARK    5  A    between atoms: _9  and  _12
REMARK    6  A    between atoms: _12  and  _13
REMARK    7  A    between atoms: _18  and  _20
REMARK    8  A    between atoms: _20  and  _21
REMARK    9  A    between atoms: _20  and  _23
REMARK   10  A    between atoms: _23  and  _24
REMARK   11  A    between atoms: _24  and  _25
REMARK   12  A    between atoms: _30  and  _32
REMARK   13  A    between atoms: _32  and  _33
REMARK   14  A    between atoms: _32  and  _35
REMARK   15  A    between atoms: _35  and  _36
REMARK   16  A    between atoms: _38  and  _40
REMARK   17  A    between atoms: _40  and  _41
REMARK   18  A    between atoms: _40  and  _43
REMARK   19  A    between atoms: _43  and  _44
REMARK   20  A    between atoms: _47  and  _49
REMARK   21  A    between atoms: _49  and  _50
REMARK   22  A    between atoms: _49  and  _52
REMARK   23  A    between atoms: _52  and  _53
REMARK   24  A    between atoms: _57  and  ZN_424
REMARK   25  A    between atoms: _58  and  _60
REMARK   26  A    between atoms: _60  and  _61
REMARK   27  A    between atoms: _60  and  _63
REMARK   28  A    between atoms: _63  and  _64
REMARK   29  A    between atoms: _64  and  _65
REMARK   30  A    between atoms: _67  and  _69
REMARK   31  A    between atoms: _69  and  _70
REMARK   32  A    between atoms: _69  and  _72
REMARK   33  A    between atoms: _72  and  _73
REMARK   34  A    between atoms: _76  and  _78
REMARK   35  A    between atoms: _78  and  _79
REMARK   36  A    between atoms: _78  and  _81
REMARK   37  A    between atoms: _81  and  _82
REMARK   38  A    between atoms: _82  and  _83
REMARK   39  A    between atoms: _86  and  _88
REMARK   40  A    between atoms: _88  and  _89
REMARK   41  A    between atoms: _88  and  _91
REMARK   42  A    between atoms: _91  and  _92
REMARK   43  A    between atoms: _92  and  _93
REMARK   44  A    between atoms: _96  and  _98
REMARK   45  A    between atoms: _98  and  _99
REMARK   46  A    between atoms: _98  and  _101
REMARK   47  A    between atoms: _101  and  _102
REMARK   48  A    between atoms: _105  and  _107
REMARK   49  A    between atoms: _107  and  _108
REMARK   50  A    between atoms: _107  and  _110
REMARK   51  A    between atoms: _110  and  _111
REMARK   52  A    between atoms: _114  and  _116
REMARK   53  A    between atoms: _116  and  _117
REMARK   54  A    between atoms: _116  and  _119
REMARK   55  A    between atoms: _119  and  _120
REMARK   56  A    between atoms: _122  and  _124
REMARK   57  A    between atoms: _124  and  _125
REMARK   58  A    between atoms: _124  and  _127
REMARK   59  A    between atoms: _127  and  _128
REMARK   60  A    between atoms: _132  and  ZN_424
REMARK   61  A    between atoms: _133  and  _135
REMARK   62  A    between atoms: _135  and  _136
REMARK   63  A    between atoms: _138  and  _140
REMARK   64  A    between atoms: _140  and  _141
REMARK   65  A    between atoms: _144  and  _146
REMARK   66  A    between atoms: _146  and  _147
REMARK   67  A    between atoms: _146  and  _149
REMARK   68  A    between atoms: _149  and  _150
REMARK   69  A    between atoms: _156  and  _158
REMARK   70  A    between atoms: _158  and  _159
REMARK   71  A    between atoms: _158  and  _161
REMARK   72  A    between atoms: _161  and  _162
REMARK   73  A    between atoms: _162  and  _163
REMARK   74  A    between atoms: _163  and  _164
REMARK   75  A    between atoms: _164  and  _165
REMARK   76  A    between atoms: _169  and  _171
REMARK   77  A    between atoms: _171  and  _172
REMARK   78  A    between atoms: _171  and  _174
REMARK   79  A    between atoms: _177  and  _179
REMARK   80  A    between atoms: _179  and  _180
REMARK   81  A    between atoms: _179  and  _182
REMARK   82  A    between atoms: _182  and  _183
REMARK   83  A    between atoms: _186  and  _188
REMARK   84  A    between atoms: _188  and  _189
REMARK   85  A    between atoms: _188  and  _191
REMARK   86  A    between atoms: _191  and  _192
REMARK   87  A    between atoms: _193  and  ZN_424
REMARK   88  A    between atoms: _197  and  _199
REMARK   89  A    between atoms: _199  and  _200
REMARK   90  A    between atoms: _202  and  _204
REMARK   91  A    between atoms: _204  and  _205
REMARK   92  A    between atoms: _208  and  _210
REMARK   93  A    between atoms: _210  and  _211
REMARK   94  A    between atoms: _210  and  _213
REMARK   95  A    between atoms: _213  and  _214
REMARK   96  A    between atoms: _216  and  _218
REMARK   97  A    between atoms: _218  and  _219
REMARK   98  A    between atoms: _222  and  _224
REMARK   99  A    between atoms: _224  and  _225
REMARK  100  A    between atoms: _224  and  _227
REMARK  101  A    between atoms: _227  and  _228
REMARK  102  A    between atoms: _231  and  _233
REMARK  103  A    between atoms: _233  and  _234
REMARK  104  A    between atoms: _233  and  _236
REMARK  105  A    between atoms: _236  and  _237
REMARK  106  A    between atoms: _237  and  _238
REMARK  107  A    between atoms: _238  and  _239
REMARK  108  A    between atoms: _239  and  _240
REMARK  109  A    between atoms: _244  and  _246
REMARK  110  A    between atoms: _246  and  _247
REMARK  111  A    between atoms: _249  and  _251
REMARK  112  A    between atoms: _251  and  _252
REMARK  113  A    between atoms: _251  and  _254
REMARK  114  A    between atoms: _257  and  _259
REMARK  115  A    between atoms: _259  and  _260
REMARK  116  A    between atoms: _259  and  _262
REMARK  117  A    between atoms: _262  and  _263
REMARK  118  A    between atoms: _266  and  _268
REMARK  119  A    between atoms: _268  and  _269
REMARK  120  A    between atoms: _268  and  _271
REMARK  121  A    between atoms: _271  and  _272
REMARK  122  A    between atoms: _272  and  _273
REMARK  123  A    between atoms: _273  and  _274
REMARK  124  A    between atoms: _274  and  _275
REMARK  125  A    between atoms: _279  and  _281
REMARK  126  A    between atoms: _281  and  _282
REMARK  127  A    between atoms: _281  and  _284
REMARK  128  A    between atoms: _287  and  _289
REMARK  129  A    between atoms: _289  and  _290
REMARK  130  A    between atoms: _289  and  _292
REMARK  131  A    between atoms: _292  and  _293
REMARK  132  A    between atoms: _298  and  _300
REMARK  133  A    between atoms: _300  and  _301
REMARK  134  A    between atoms: _300  and  _303
REMARK  135  A    between atoms: _303  and  _304
REMARK  136  A    between atoms: _307  and  _309
REMARK  137  A    between atoms: _309  and  _310
REMARK  138  A    between atoms: _309  and  _312
REMARK  139  A    between atoms: _312  and  _313
REMARK  140  A    between atoms: _316  and  _318
REMARK  141  A    between atoms: _318  and  _319
REMARK  142  A    between atoms: _318  and  _321
REMARK  143  A    between atoms: _321  and  _322
REMARK  144  A    between atoms: _325  and  _327
REMARK  145  A    between atoms: _327  and  _328
REMARK  146  A    between atoms: _327  and  _330
REMARK  147  A    between atoms: _330  and  _331
REMARK  148  A    between atoms: _334  and  _336
REMARK  149  A    between atoms: _336  and  _337
REMARK  150  A    between atoms: _336  and  _339
REMARK  151  A    between atoms: _339  and  _340
REMARK  152  A    between atoms: _343  and  _345
REMARK  153  A    between atoms: _345  and  _346
REMARK  154  A    between atoms: _345  and  _348
REMARK  155  A    between atoms: _348  and  _349
REMARK  156  A    between atoms: _349  and  _350
REMARK  157  A    between atoms: _350  and  _351
REMARK  158  A    between atoms: _360  and  _362
REMARK  159  A    between atoms: _362  and  _363
REMARK  160  A    between atoms: _362  and  _365
REMARK  161  A    between atoms: _365  and  _366
REMARK  162  A    between atoms: _369  and  _371
REMARK  163  A    between atoms: _371  and  _372
REMARK  164  A    between atoms: _371  and  _374
REMARK  165  A    between atoms: _374  and  _375
REMARK  166  A    between atoms: _375  and  _376
REMARK  167  A    between atoms: _376  and  _377
REMARK  168  A    between atoms: _386  and  _388
REMARK  169  A    between atoms: _388  and  _389
REMARK  170  A    between atoms: _388  and  _391
REMARK  171  A    between atoms: _391  and  _392
REMARK  172  A    between atoms: _398  and  _400
REMARK  173  A    between atoms: _400  and  _401
REMARK  174  A    between atoms: _400  and  _403
REMARK  175  A    between atoms: _403  and  _404
REMARK  176  A    between atoms: _407  and  _409
REMARK  177  A    between atoms: _409  and  _410
REMARK  178  A    between atoms: _409  and  _412
REMARK  179  A    between atoms: _412  and  _413
REMARK  180  A    between atoms: _413  and  _414
REMARK  181  A    between atoms: _414  and  _415
REMARK                            x       y       z     vdW  Elec       q    Type
REMARK                         _______ _______ _______ _____ _____    ______ ____
ROOT
ATOM      1  O   HOH     1      -4.463   0.779 -39.949  0.00  0.00    +0.000 OA
ENDROOT
TORSDOF 0
REMARK  Name = ../refined-set-2016/3n9r/3n9r_pocket.pdb
REMARK  181 active torsions:
REMARK  status: ('A' for Active; 'I' for Inactive)
REMARK    1  A    between atoms: _1  and  _3
REMARK    2  A    between atoms: _3  and  _4
REMARK    3  A    between atoms: _7  and  _9
REMARK    4  A    between atoms: _9  and  _10
REMARK    5  A    between atoms: _9  and  _12
REMARK    6  A    between atoms: _12  and  _13
REMARK    7  A    between atoms: _18  and  _20
REMARK    8  A    between atoms: _20  and  _21
REMARK    9  A    between atoms: _20  and  _23
REMARK   10  A    between atoms: _23  and  _24
REMARK   11  A    between atoms: _24  and  _25
REMARK   12  A    between atoms: _30  and  _32
REMARK   13  A    between atoms: _32  and  _33
REMARK   14  A    between atoms: _32  and  _35
REMARK   15  A    between atoms: _35  and  _36
REMARK   16  A    between atoms: _38  and  _40
REMARK   17  A    between atoms: _40  and  _41
REMARK   18  A    between atoms: _40  and  _43
REMARK   19  A    between atoms: _43  and  _44
REMARK   20  A    between atoms: _47  and  _49
REMARK   21  A    between atoms: _49  and  _50
REMARK   22  A    between atoms: _49  and  _52
REMARK   23  A    between atoms: _52  and  _53
REMARK   24  A    between atoms: _57  and  ZN_424
REMARK   25  A    between atoms: _58  and  _60
REMARK   26  A    between atoms: _60  and  _61
REMARK   27  A    between atoms: _60  and  _63
REMARK   28  A    between atoms: _63  and  _64
REMARK   29  A    between atoms: _64  and  _65
REMARK   30  A    between atoms: _67  and  _69
REMARK   31  A    between atoms: _69  and  _70
REMARK   32  A    between atoms: _69  and  _72
REMARK   33  A    between atoms: _72  and  _73
REMARK   34  A    between atoms: _76  and  _78
REMARK   35  A    between atoms: _78  and  _79
REMARK   36  A    between atoms: _78  and  _81
REMARK   37  A    between atoms: _81  and  _82
REMARK   38  A    between atoms: _82  and  _83
REMARK   39  A    between atoms: _86  and  _88
REMARK   40  A    between atoms: _88  and  _89
REMARK   41  A    between atoms: _88  and  _91
REMARK   42  A    between atoms: _91  and  _92
REMARK   43  A    between atoms: _92  and  _93
REMARK   44  A    between atoms: _96  and  _98
REMARK   45  A    between atoms: _98  and  _99
REMARK   46  A    between atoms: _98  and  _101
REMARK   47  A    between atoms: _101  and  _102
REMARK   48  A    between atoms: _105  and  _107
REMARK   49  A    between atoms: _107  and  _108
REMARK   50  A    between atoms: _107  and  _110
REMARK   51  A    between atoms: _110  and  _111
REMARK   52  A    between atoms: _114  and  _116
REMARK   53  A    between atoms: _116  and  _117
REMARK   54  A    between atoms: _116  and  _119
REMARK   55  A    between atoms: _119  and  _120
REMARK   56  A    between atoms: _122  and  _124
REMARK   57  A    between atoms: _124  and  _125
REMARK   58  A    between atoms: _124  and  _127
REMARK   59  A    between atoms: _127  and  _128
REMARK   60  A    between atoms: _132  and  ZN_424
REMARK   61  A    between atoms: _133  and  _135
REMARK   62  A    between atoms: _135  and  _136
REMARK   63  A    between atoms: _138  and  _140
REMARK   64  A    between atoms: _140  and  _141
REMARK   65  A    between atoms: _144  and  _146
REMARK   66  A    between atoms: _146  and  _147
REMARK   67  A    between atoms: _146  and  _149
REMARK   68  A    between atoms: _149  and  _150
REMARK   69  A    between atoms: _156  and  _158
REMARK   70  A    between atoms: _158  and  _159
REMARK   71  A    between atoms: _158  and  _161
REMARK   72  A    between atoms: _161  and  _162
REMARK   73  A    between atoms: _162  and  _163
REMARK   74  A    between atoms: _163  and  _164
REMARK   75  A    between atoms: _164  and  _165
REMARK   76  A    between atoms: _169  and  _171
REMARK   77  A    between atoms: _171  and  _172
REMARK   78  A    between atoms: _171  and  _174
REMARK   79  A    between atoms: _177  and  _179
REMARK   80  A    between atoms: _179  and  _180
REMARK   81  A    between atoms: _179  and  _182
REMARK   82  A    between atoms: _182  and  _183
REMARK   83  A    between atoms: _186  and  _188
REMARK   84  A    between atoms: _188  and  _189
REMARK   85  A    between atoms: _188  and  _191
REMARK   86  A    between atoms: _191  and  _192
REMARK   87  A    between atoms: _193  and  ZN_424
REMARK   88  A    between atoms: _197  and  _199
REMARK   89  A    between atoms: _199  and  _200
REMARK   90  A    between atoms: _202  and  _204
REMARK   91  A    between atoms: _204  and  _205
REMARK   92  A    between atoms: _208  and  _210
REMARK   93  A    between atoms: _210  and  _211
REMARK   94  A    between atoms: _210  and  _213
REMARK   95  A    between atoms: _213  and  _214
REMARK   96  A    between atoms: _216  and  _218
REMARK   97  A    between atoms: _218  and  _219
REMARK   98  A    between atoms: _222  and  _224
REMARK   99  A    between atoms: _224  and  _225
REMARK  100  A    between atoms: _224  and  _227
REMARK  101  A    between atoms: _227  and  _228
REMARK  102  A    between atoms: _231  and  _233
REMARK  103  A    between atoms: _233  and  _234
REMARK  104  A    between atoms: _233  and  _236
REMARK  105  A    between atoms: _236  and  _237
REMARK  106  A    between atoms: _237  and  _238
REMARK  107  A    between atoms: _238  and  _239
REMARK  108  A    between atoms: _239  and  _240
REMARK  109  A    between atoms: _244  and  _246
REMARK  110  A    between atoms: _246  and  _247
REMARK  111  A    between atoms: _249  and  _251
REMARK  112  A    between atoms: _251  and  _252
REMARK  113  A    between atoms: _251  and  _254
REMARK  114  A    between atoms: _257  and  _259
REMARK  115  A    between atoms: _259  and  _260
REMARK  116  A    between atoms: _259  and  _262
REMARK  117  A    between atoms: _262  and  _263
REMARK  118  A    between atoms: _266  and  _268
REMARK  119  A    between atoms: _268  and  _269
REMARK  120  A    between atoms: _268  and  _271
REMARK  121  A    between atoms: _271  and  _272
REMARK  122  A    between atoms: _272  and  _273
REMARK  123  A    between atoms: _273  and  _274
REMARK  124  A    between atoms: _274  and  _275
REMARK  125  A    between atoms: _279  and  _281
REMARK  126  A    between atoms: _281  and  _282
REMARK  127  A    between atoms: _281  and  _284
REMARK  128  A    between atoms: _287  and  _289
REMARK  129  A    between atoms: _289  and  _290
REMARK  130  A    between atoms: _289  and  _292
REMARK  131  A    between atoms: _292  and  _293
REMARK  132  A    between atoms: _298  and  _300
REMARK  133  A    between atoms: _300  and  _301
REMARK  134  A    between atoms: _300  and  _303
REMARK  135  A    between atoms: _303  and  _304
REMARK  136  A    between atoms: _307  and  _309
REMARK  137  A    between atoms: _309  and  _310
REMARK  138  A    between atoms: _309  and  _312
REMARK  139  A    between atoms: _312  and  _313
REMARK  140  A    between atoms: _316  and  _318
REMARK  141  A    between atoms: _318  and  _319
REMARK  142  A    between atoms: _318  and  _321
REMARK  143  A    between atoms: _321  and  _322
REMARK  144  A    between atoms: _325  and  _327
REMARK  145  A    between atoms: _327  and  _328
REMARK  146  A    between atoms: _327  and  _330
REMARK  147  A    between atoms: _330  and  _331
REMARK  148  A    between atoms: _334  and  _336
REMARK  149  A    between atoms: _336  and  _337
REMARK  150  A    between atoms: _336  and  _339
REMARK  151  A    between atoms: _339  and  _340
REMARK  152  A    between atoms: _343  and  _345
REMARK  153  A    between atoms: _345  and  _346
REMARK  154  A    between atoms: _345  and  _348
REMARK  155  A    between atoms: _348  and  _349
REMARK  156  A    between atoms: _349  and  _350
REMARK  157  A    between atoms: _350  and  _351
REMARK  158  A    between atoms: _360  and  _362
REMARK  159  A    between atoms: _362  and  _363
REMARK  160  A    between atoms: _362  and  _365
REMARK  161  A    between atoms: _365  and  _366
REMARK  162  A    between atoms: _369  and  _371
REMARK  163  A    between atoms: _371  and  _372
REMARK  164  A    between atoms: _371  and  _374
REMARK  165  A    between atoms: _374  and  _375
REMARK  166  A    between atoms: _375  and  _376
REMARK  167  A    between atoms: _376  and  _377
REMARK  168  A    between atoms: _386  and  _388
REMARK  169  A    between atoms: _388  and  _389
REMARK  170  A    between atoms: _388  and  _391
REMARK  171  A    between atoms: _391  and  _392
REMARK  172  A    between atoms: _398  and  _400
REMARK  173  A    between atoms: _400  and  _401
REMARK  174  A    between atoms: _400  and  _403
REMARK  175  A    between atoms: _403  and  _404
REMARK  176  A    between atoms: _407  and  _409
REMARK  177  A    between atoms: _409  and  _410
REMARK  178  A    between atoms: _409  and  _412
REMARK  179  A    between atoms: _412  and  _413
REMARK  180  A    between atoms: _413  and  _414
REMARK  181  A    between atoms: _414  and  _415
REMARK                            x       y       z     vdW  Elec       q    Type
REMARK                         _______ _______ _______ _____ _____    ______ ____
ROOT
ATOM      1  O   HOH     1      -1.119   0.318 -46.688  0.00  0.00    +0.000 OA
ENDROOT
TORSDOF 0
