REMARK  Name = ../refined-set-2016/4lvt/4lvt_pocket.pdb
REMARK  226 active torsions:
REMARK  status: ('A' for Active; 'I' for Inactive)
REMARK    1  A    between atoms: _1  and  _3
REMARK    2  A    between atoms: _3  and  _4
REMARK    3  A    between atoms: _3  and  _6
REMARK    4  A    between atoms: _6  and  _7
REMARK    5  A    between atoms: _12  and  _13
REMARK    6  A    between atoms: _15  and  _17
REMARK    7  A    between atoms: _17  and  _18
REMARK    8  A    between atoms: _17  and  _20
REMARK    9  A    between atoms: _20  and  _21
REMARK   10  A    between atoms: _24  and  _26
REMARK   11  A    between atoms: _26  and  _27
REMARK   12  A    between atoms: _26  and  _29
REMARK   13  A    between atoms: _29  and  _30
REMARK   14  A    between atoms: _33  and  _35
REMARK   15  A    between atoms: _35  and  _36
REMARK   16  A    between atoms: _35  and  _38
REMARK   17  A    between atoms: _38  and  _39
REMARK   18  A    between atoms: _39  and  _40
REMARK   19  A    between atoms: _45  and  _47
REMARK   20  A    between atoms: _47  and  _48
REMARK   21  A    between atoms: _51  and  _53
REMARK   22  A    between atoms: _53  and  _54
REMARK   23  A    between atoms: _56  and  _58
REMARK   24  A    between atoms: _58  and  _59
REMARK   25  A    between atoms: _58  and  _61
REMARK   26  A    between atoms: _61  and  _62
REMARK   27  A    between atoms: _65  and  _67
REMARK   28  A    between atoms: _67  and  _68
REMARK   29  A    between atoms: _67  and  _70
REMARK   30  A    between atoms: _70  and  _71
REMARK   31  A    between atoms: _74  and  _76
REMARK   32  A    between atoms: _76  and  _77
REMARK   33  A    between atoms: _76  and  _79
REMARK   34  A    between atoms: _79  and  _80
REMARK   35  A    between atoms: _86  and  _88
REMARK   36  A    between atoms: _88  and  _89
REMARK   37  A    between atoms: _88  and  _91
REMARK   38  A    between atoms: _91  and  _92
REMARK   39  A    between atoms: _94  and  _96
REMARK   40  A    between atoms: _96  and  _97
REMARK   41  A    between atoms: _96  and  _99
REMARK   42  A    between atoms: _99  and  _100
REMARK   43  A    between atoms: _100  and  _101
REMARK   44  A    between atoms: _101  and  _102
REMARK   45  A    between atoms: _111  and  _113
REMARK   46  A    between atoms: _113  and  _114
REMARK   47  A    between atoms: _113  and  _116
REMARK   48  A    between atoms: _116  and  _117
REMARK   49  A    between atoms: _117  and  _118
REMARK   50  A    between atoms: _118  and  _119
REMARK   51  A    between atoms: _128  and  _130
REMARK   52  A    between atoms: _130  and  _131
REMARK   53  A    between atoms: _130  and  _133
REMARK   54  A    between atoms: _133  and  _134
REMARK   55  A    between atoms: _139  and  _140
REMARK   56  A    between atoms: _142  and  _144
REMARK   57  A    between atoms: _144  and  _145
REMARK   58  A    between atoms: _144  and  _147
REMARK   59  A    between atoms: _147  and  _148
REMARK   60  A    between atoms: _148  and  _149
REMARK   61  A    between atoms: _149  and  _150
REMARK   62  A    between atoms: _159  and  _161
REMARK   63  A    between atoms: _161  and  _162
REMARK   64  A    between atoms: _161  and  _164
REMARK   65  A    between atoms: _164  and  _165
REMARK   66  A    between atoms: _165  and  _166
REMARK   67  A    between atoms: _166  and  _167
REMARK   68  A    between atoms: _176  and  _178
REMARK   69  A    between atoms: _178  and  _179
REMARK   70  A    between atoms: _178  and  _181
REMARK   71  A    between atoms: _181  and  _182
REMARK   72  A    between atoms: _185  and  _187
REMARK   73  A    between atoms: _187  and  _188
REMARK   74  A    between atoms: _187  and  _190
REMARK   75  A    between atoms: _190  and  _191
REMARK   76  A    between atoms: _197  and  _199
REMARK   77  A    between atoms: _199  and  _200
REMARK   78  A    between atoms: _203  and  _205
REMARK   79  A    between atoms: _205  and  _206
REMARK   80  A    between atoms: _205  and  _208
REMARK   81  A    between atoms: _208  and  _209
REMARK   82  A    between atoms: _209  and  _210
REMARK   83  A    between atoms: _213  and  _215
REMARK   84  A    between atoms: _215  and  _216
REMARK   85  A    between atoms: _215  and  _218
REMARK   86  A    between atoms: _218  and  _219
REMARK   87  A    between atoms: _219  and  _220
REMARK   88  A    between atoms: _222  and  _224
REMARK   89  A    between atoms: _224  and  _225
REMARK   90  A    between atoms: _224  and  _227
REMARK   91  A    between atoms: _227  and  _228
REMARK   92  A    between atoms: _230  and  _232
REMARK   93  A    between atoms: _232  and  _233
REMARK   94  A    between atoms: _232  and  _235
REMARK   95  A    between atoms: _235  and  _236
REMARK   96  A    between atoms: _236  and  _237
REMARK   97  A    between atoms: _237  and  _238
REMARK   98  A    between atoms: _247  and  _249
REMARK   99  A    between atoms: _249  and  _250
REMARK  100  A    between atoms: _249  and  _252
REMARK  101  A    between atoms: _252  and  _253
REMARK  102  A    between atoms: _256  and  _258
REMARK  103  A    between atoms: _258  and  _259
REMARK  104  A    between atoms: _258  and  _261
REMARK  105  A    between atoms: _264  and  _266
REMARK  106  A    between atoms: _266  and  _267
REMARK  107  A    between atoms: _266  and  _269
REMARK  108  A    between atoms: _272  and  _274
REMARK  109  A    between atoms: _274  and  _275
REMARK  110  A    between atoms: _274  and  _277
REMARK  111  A    between atoms: _277  and  _278
REMARK  112  A    between atoms: _278  and  _279
REMARK  113  A    between atoms: _282  and  _284
REMARK  114  A    between atoms: _284  and  _285
REMARK  115  A    between atoms: _284  and  _287
REMARK  116  A    between atoms: _287  and  _288
REMARK  117  A    between atoms: _288  and  _289
REMARK  118  A    between atoms: _292  and  _294
REMARK  119  A    between atoms: _294  and  _295
REMARK  120  A    between atoms: _294  and  _297
REMARK  121  A    between atoms: _297  and  _298
REMARK  122  A    between atoms: _301  and  _303
REMARK  123  A    between atoms: _303  and  _304
REMARK  124  A    between atoms: _303  and  _306
REMARK  125  A    between atoms: _306  and  _307
REMARK  126  A    between atoms: _313  and  _315
REMARK  127  A    between atoms: _315  and  _316
REMARK  128  A    between atoms: _315  and  _318
REMARK  129  A    between atoms: _318  and  _319
REMARK  130  A    between atoms: _319  and  _320
REMARK  131  A    between atoms: _320  and  _321
REMARK  132  A    between atoms: _330  and  _332
REMARK  133  A    between atoms: _332  and  _333
REMARK  134  A    between atoms: _332  and  _335
REMARK  135  A    between atoms: _335  and  _336
REMARK  136  A    between atoms: _339  and  _341
REMARK  137  A    between atoms: _341  and  _342
REMARK  138  A    between atoms: _341  and  _344
REMARK  139  A    between atoms: _347  and  _349
REMARK  140  A    between atoms: _349  and  _350
REMARK  141  A    between atoms: _349  and  _352
REMARK  142  A    between atoms: _352  and  _353
REMARK  143  A    between atoms: _358  and  _360
REMARK  144  A    between atoms: _360  and  _361
REMARK  145  A    between atoms: _360  and  _363
REMARK  146  A    between atoms: _363  and  _364
REMARK  147  A    between atoms: _374  and  _376
REMARK  148  A    between atoms: _376  and  _377
REMARK  149  A    between atoms: _379  and  _381
REMARK  150  A    between atoms: _381  and  _382
REMARK  151  A    between atoms: _381  and  _384
REMARK  152  A    between atoms: _384  and  _385
REMARK  153  A    between atoms: _385  and  _386
REMARK  154  A    between atoms: _386  and  _387
REMARK  155  A    between atoms: _396  and  _398
REMARK  156  A    between atoms: _398  and  _399
REMARK  157  A    between atoms: _398  and  _401
REMARK  158  A    between atoms: _401  and  _402
REMARK  159  A    between atoms: _405  and  _407
REMARK  160  A    between atoms: _407  and  _408
REMARK  161  A    between atoms: _407  and  _410
REMARK  162  A    between atoms: _413  and  _415
REMARK  163  A    between atoms: _415  and  _416
REMARK  164  A    between atoms: _419  and  _421
REMARK  165  A    between atoms: _421  and  _422
REMARK  166  A    between atoms: _421  and  _424
REMARK  167  A    between atoms: _424  and  _425
REMARK  168  A    between atoms: _431  and  _433
REMARK  169  A    between atoms: _433  and  _434
REMARK  170  A    between atoms: _433  and  _436
REMARK  171  A    between atoms: _436  and  _437
REMARK  172  A    between atoms: _443  and  _445
REMARK  173  A    between atoms: _445  and  _446
REMARK  174  A    between atoms: _445  and  _448
REMARK  175  A    between atoms: _448  and  _449
REMARK  176  A    between atoms: _449  and  _450
REMARK  177  A    between atoms: _453  and  _455
REMARK  178  A    between atoms: _455  and  _456
REMARK  179  A    between atoms: _455  and  _458
REMARK  180  A    between atoms: _458  and  _459
REMARK  181  A    between atoms: _465  and  _467
REMARK  182  A    between atoms: _467  and  _468
REMARK  183  A    between atoms: _470  and  _472
REMARK  184  A    between atoms: _472  and  _473
REMARK  185  A    between atoms: _475  and  _477
REMARK  186  A    between atoms: _477  and  _478
REMARK  187  A    between atoms: _477  and  _480
REMARK  188  A    between atoms: _483  and  _485
REMARK  189  A    between atoms: _485  and  _486
REMARK  190  A    between atoms: _485  and  _488
REMARK  191  A    between atoms: _488  and  _489
REMARK  192  A    between atoms: _489  and  _490
REMARK  193  A    between atoms: _492  and  _494
REMARK  194  A    between atoms: _494  and  _495
REMARK  195  A    between atoms: _494  and  _497
REMARK  196  A    between atoms: _497  and  _498
REMARK  197  A    between atoms: _508  and  _510
REMARK  198  A    between atoms: _510  and  _511
REMARK  199  A    between atoms: _510  and  _513
REMARK  200  A    between atoms: _513  and  _514
REMARK  201  A    between atoms: _524  and  _526
REMARK  202  A    between atoms: _526  and  _527
REMARK  203  A    between atoms: _530  and  _532
REMARK  204  A    between atoms: _532  and  _533
REMARK  205  A    between atoms: _532  and  _535
REMARK  206  A    between atoms: _535  and  _536
REMARK  207  A    between atoms: _542  and  _544
REMARK  208  A    between atoms: _544  and  _545
REMARK  209  A    between atoms: _544  and  _547
REMARK  210  A    between atoms: _550  and  _552
REMARK  211  A    between atoms: _552  and  _553
REMARK  212  A    between atoms: _552  and  _555
REMARK  213  A    between atoms: _555  and  _556
REMARK  214  A    between atoms: _556  and  _557
REMARK  215  A    between atoms: _560  and  _562
REMARK  216  A    between atoms: _562  and  _563
REMARK  217  A    between atoms: _562  and  _565
REMARK  218  A    between atoms: _565  and  _566
REMARK  219  A    between atoms: _569  and  _571
REMARK  220  A    between atoms: _571  and  _572
REMARK  221  A    between atoms: _571  and  _574
REMARK  222  A    between atoms: _574  and  _575
REMARK  223  A    between atoms: _580  and  _581
REMARK  224  A    between atoms: _583  and  _585
REMARK  225  A    between atoms: _585  and  _586
REMARK  226  A    between atoms: _589  and  _590
REMARK                            x       y       z     vdW  Elec       q    Type
REMARK                         _______ _______ _______ _____ _____    ______ ____
ROOT
ATOM      1  CG  TYR A   1       5.946  -4.665   5.201  0.00  0.00    -0.020 A 
ATOM      2  CD2 TYR A   1       6.178  -3.306   5.388  0.00  0.00    -0.001 A 
ATOM      3  CE2 TYR A   1       7.047  -2.629   4.605  0.00  0.00    +0.036 A 
ATOM      4  CZ  TYR A   1       7.703  -3.293   3.604  0.00  0.00    +0.134 A 
ATOM      5  CE1 TYR A   1       7.470  -4.636   3.356  0.00  0.00    +0.036 A 
ATOM      6  CD1 TYR A   1       6.614  -5.317   4.172  0.00  0.00    -0.001 A 
ENDROOT
BRANCH   4   7
ATOM      7  OH  TYR A   1       8.581  -2.571   2.850  0.00  0.00    -0.506 OA
ATOM      8  HH  TYR A   1       8.988  -3.159   2.165  0.00  0.00    +0.292 HD
ENDBRANCH   4   7
BRANCH   1   9
ATOM      9  CB  TYR A   1       4.991  -5.402   6.095  0.00  0.00    +0.051 C 
BRANCH   9  10
ATOM     10  CA  TYR A   1       5.667  -6.025   7.318  0.00  0.00    +0.137 C 
BRANCH  10  11
ATOM     11  N   TYR A   1       4.658  -6.564   8.215  0.00  0.00    -0.239 NA
ATOM     12  H   TYR A   1       3.652  -6.380   8.028  0.00  0.00    +0.142 HD
ENDBRANCH  10  11
BRANCH  10  13
ATOM     13  C   TYR A   1       6.563  -4.990   8.017  0.00  0.00    +0.224 C 
ATOM     14  O   TYR A   1       7.785  -5.012   7.893  0.00  0.00    -0.287 OA
ENDBRANCH  10  13
ENDBRANCH   9  10
ENDBRANCH   1   9
TORSDOF 5
REMARK  Name = ../refined-set-2016/4lvt/4lvt_pocket.pdb
REMARK  226 active torsions:
REMARK  status: ('A' for Active; 'I' for Inactive)
REMARK    1  A    between atoms: _1  and  _3
REMARK    2  A    between atoms: _3  and  _4
REMARK    3  A    between atoms: _3  and  _6
REMARK    4  A    between atoms: _6  and  _7
REMARK    5  A    between atoms: _12  and  _13
REMARK    6  A    between atoms: _15  and  _17
REMARK    7  A    between atoms: _17  and  _18
REMARK    8  A    between atoms: _17  and  _20
REMARK    9  A    between atoms: _20  and  _21
REMARK   10  A    between atoms: _24  and  _26
REMARK   11  A    between atoms: _26  and  _27
REMARK   12  A    between atoms: _26  and  _29
REMARK   13  A    between atoms: _29  and  _30
REMARK   14  A    between atoms: _33  and  _35
REMARK   15  A    between atoms: _35  and  _36
REMARK   16  A    between atoms: _35  and  _38
REMARK   17  A    between atoms: _38  and  _39
REMARK   18  A    between atoms: _39  and  _40
REMARK   19  A    between atoms: _45  and  _47
REMARK   20  A    between atoms: _47  and  _48
REMARK   21  A    between atoms: _51  and  _53
REMARK   22  A    between atoms: _53  and  _54
REMARK   23  A    between atoms: _56  and  _58
REMARK   24  A    between atoms: _58  and  _59
REMARK   25  A    between atoms: _58  and  _61
REMARK   26  A    between atoms: _61  and  _62
REMARK   27  A    between atoms: _65  and  _67
REMARK   28  A    between atoms: _67  and  _68
REMARK   29  A    between atoms: _67  and  _70
REMARK   30  A    between atoms: _70  and  _71
REMARK   31  A    between atoms: _74  and  _76
REMARK   32  A    between atoms: _76  and  _77
REMARK   33  A    between atoms: _76  and  _79
REMARK   34  A    between atoms: _79  and  _80
REMARK   35  A    between atoms: _86  and  _88
REMARK   36  A    between atoms: _88  and  _89
REMARK   37  A    between atoms: _88  and  _91
REMARK   38  A    between atoms: _91  and  _92
REMARK   39  A    between atoms: _94  and  _96
REMARK   40  A    between atoms: _96  and  _97
REMARK   41  A    between atoms: _96  and  _99
REMARK   42  A    between atoms: _99  and  _100
REMARK   43  A    between atoms: _100  and  _101
REMARK   44  A    between atoms: _101  and  _102
REMARK   45  A    between atoms: _111  and  _113
REMARK   46  A    between atoms: _113  and  _114
REMARK   47  A    between atoms: _113  and  _116
REMARK   48  A    between atoms: _116  and  _117
REMARK   49  A    between atoms: _117  and  _118
REMARK   50  A    between atoms: _118  and  _119
REMARK   51  A    between atoms: _128  and  _130
REMARK   52  A    between atoms: _130  and  _131
REMARK   53  A    between atoms: _130  and  _133
REMARK   54  A    between atoms: _133  and  _134
REMARK   55  A    between atoms: _139  and  _140
REMARK   56  A    between atoms: _142  and  _144
REMARK   57  A    between atoms: _144  and  _145
REMARK   58  A    between atoms: _144  and  _147
REMARK   59  A    between atoms: _147  and  _148
REMARK   60  A    between atoms: _148  and  _149
REMARK   61  A    between atoms: _149  and  _150
REMARK   62  A    between atoms: _159  and  _161
REMARK   63  A    between atoms: _161  and  _162
REMARK   64  A    between atoms: _161  and  _164
REMARK   65  A    between atoms: _164  and  _165
REMARK   66  A    between atoms: _165  and  _166
REMARK   67  A    between atoms: _166  and  _167
REMARK   68  A    between atoms: _176  and  _178
REMARK   69  A    between atoms: _178  and  _179
REMARK   70  A    between atoms: _178  and  _181
REMARK   71  A    between atoms: _181  and  _182
REMARK   72  A    between atoms: _185  and  _187
REMARK   73  A    between atoms: _187  and  _188
REMARK   74  A    between atoms: _187  and  _190
REMARK   75  A    between atoms: _190  and  _191
REMARK   76  A    between atoms: _197  and  _199
REMARK   77  A    between atoms: _199  and  _200
REMARK   78  A    between atoms: _203  and  _205
REMARK   79  A    between atoms: _205  and  _206
REMARK   80  A    between atoms: _205  and  _208
REMARK   81  A    between atoms: _208  and  _209
REMARK   82  A    between atoms: _209  and  _210
REMARK   83  A    between atoms: _213  and  _215
REMARK   84  A    between atoms: _215  and  _216
REMARK   85  A    between atoms: _215  and  _218
REMARK   86  A    between atoms: _218  and  _219
REMARK   87  A    between atoms: _219  and  _220
REMARK   88  A    between atoms: _222  and  _224
REMARK   89  A    between atoms: _224  and  _225
REMARK   90  A    between atoms: _224  and  _227
REMARK   91  A    between atoms: _227  and  _228
REMARK   92  A    between atoms: _230  and  _232
REMARK   93  A    between atoms: _232  and  _233
REMARK   94  A    between atoms: _232  and  _235
REMARK   95  A    between atoms: _235  and  _236
REMARK   96  A    between atoms: _236  and  _237
REMARK   97  A    between atoms: _237  and  _238
REMARK   98  A    between atoms: _247  and  _249
REMARK   99  A    between atoms: _249  and  _250
REMARK  100  A    between atoms: _249  and  _252
REMARK  101  A    between atoms: _252  and  _253
REMARK  102  A    between atoms: _256  and  _258
REMARK  103  A    between atoms: _258  and  _259
REMARK  104  A    between atoms: _258  and  _261
REMARK  105  A    between atoms: _264  and  _266
REMARK  106  A    between atoms: _266  and  _267
REMARK  107  A    between atoms: _266  and  _269
REMARK  108  A    between atoms: _272  and  _274
REMARK  109  A    between atoms: _274  and  _275
REMARK  110  A    between atoms: _274  and  _277
REMARK  111  A    between atoms: _277  and  _278
REMARK  112  A    between atoms: _278  and  _279
REMARK  113  A    between atoms: _282  and  _284
REMARK  114  A    between atoms: _284  and  _285
REMARK  115  A    between atoms: _284  and  _287
REMARK  116  A    between atoms: _287  and  _288
REMARK  117  A    between atoms: _288  and  _289
REMARK  118  A    between atoms: _292  and  _294
REMARK  119  A    between atoms: _294  and  _295
REMARK  120  A    between atoms: _294  and  _297
REMARK  121  A    between atoms: _297  and  _298
REMARK  122  A    between atoms: _301  and  _303
REMARK  123  A    between atoms: _303  and  _304
REMARK  124  A    between atoms: _303  and  _306
REMARK  125  A    between atoms: _306  and  _307
REMARK  126  A    between atoms: _313  and  _315
REMARK  127  A    between atoms: _315  and  _316
REMARK  128  A    between atoms: _315  and  _318
REMARK  129  A    between atoms: _318  and  _319
REMARK  130  A    between atoms: _319  and  _320
REMARK  131  A    between atoms: _320  and  _321
REMARK  132  A    between atoms: _330  and  _332
REMARK  133  A    between atoms: _332  and  _333
REMARK  134  A    between atoms: _332  and  _335
REMARK  135  A    between atoms: _335  and  _336
REMARK  136  A    between atoms: _339  and  _341
REMARK  137  A    between atoms: _341  and  _342
REMARK  138  A    between atoms: _341  and  _344
REMARK  139  A    between atoms: _347  and  _349
REMARK  140  A    between atoms: _349  and  _350
REMARK  141  A    between atoms: _349  and  _352
REMARK  142  A    between atoms: _352  and  _353
REMARK  143  A    between atoms: _358  and  _360
REMARK  144  A    between atoms: _360  and  _361
REMARK  145  A    between atoms: _360  and  _363
REMARK  146  A    between atoms: _363  and  _364
REMARK  147  A    between atoms: _374  and  _376
REMARK  148  A    between atoms: _376  and  _377
REMARK  149  A    between atoms: _379  and  _381
REMARK  150  A    between atoms: _381  and  _382
REMARK  151  A    between atoms: _381  and  _384
REMARK  152  A    between atoms: _384  and  _385
REMARK  153  A    between atoms: _385  and  _386
REMARK  154  A    between atoms: _386  and  _387
REMARK  155  A    between atoms: _396  and  _398
REMARK  156  A    between atoms: _398  and  _399
REMARK  157  A    between atoms: _398  and  _401
REMARK  158  A    between atoms: _401  and  _402
REMARK  159  A    between atoms: _405  and  _407
REMARK  160  A    between atoms: _407  and  _408
REMARK  161  A    between atoms: _407  and  _410
REMARK  162  A    between atoms: _413  and  _415
REMARK  163  A    between atoms: _415  and  _416
REMARK  164  A    between atoms: _419  and  _421
REMARK  165  A    between atoms: _421  and  _422
REMARK  166  A    between atoms: _421  and  _424
REMARK  167  A    between atoms: _424  and  _425
REMARK  168  A    between atoms: _431  and  _433
REMARK  169  A    between atoms: _433  and  _434
REMARK  170  A    between atoms: _433  and  _436
REMARK  171  A    between atoms: _436  and  _437
REMARK  172  A    between atoms: _443  and  _445
REMARK  173  A    between atoms: _445  and  _446
REMARK  174  A    between atoms: _445  and  _448
REMARK  175  A    between atoms: _448  and  _449
REMARK  176  A    between atoms: _449  and  _450
REMARK  177  A    between atoms: _453  and  _455
REMARK  178  A    between atoms: _455  and  _456
REMARK  179  A    between atoms: _455  and  _458
REMARK  180  A    between atoms: _458  and  _459
REMARK  181  A    between atoms: _465  and  _467
REMARK  182  A    between atoms: _467  and  _468
REMARK  183  A    between atoms: _470  and  _472
REMARK  184  A    between atoms: _472  and  _473
REMARK  185  A    between atoms: _475  and  _477
REMARK  186  A    between atoms: _477  and  _478
REMARK  187  A    between atoms: _477  and  _480
REMARK  188  A    between atoms: _483  and  _485
REMARK  189  A    between atoms: _485  and  _486
REMARK  190  A    between atoms: _485  and  _488
REMARK  191  A    between atoms: _488  and  _489
REMARK  192  A    between atoms: _489  and  _490
REMARK  193  A    between atoms: _492  and  _494
REMARK  194  A    between atoms: _494  and  _495
REMARK  195  A    between atoms: _494  and  _497
REMARK  196  A    between atoms: _497  and  _498
REMARK  197  A    between atoms: _508  and  _510
REMARK  198  A    between atoms: _510  and  _511
REMARK  199  A    between atoms: _510  and  _513
REMARK  200  A    between atoms: _513  and  _514
REMARK  201  A    between atoms: _524  and  _526
REMARK  202  A    between atoms: _526  and  _527
REMARK  203  A    between atoms: _530  and  _532
REMARK  204  A    between atoms: _532  and  _533
REMARK  205  A    between atoms: _532  and  _535
REMARK  206  A    between atoms: _535  and  _536
REMARK  207  A    between atoms: _542  and  _544
REMARK  208  A    between atoms: _544  and  _545
REMARK  209  A    between atoms: _544  and  _547
REMARK  210  A    between atoms: _550  and  _552
REMARK  211  A    between atoms: _552  and  _553
REMARK  212  A    between atoms: _552  and  _555
REMARK  213  A    between atoms: _555  and  _556
REMARK  214  A    between atoms: _556  and  _557
REMARK  215  A    between atoms: _560  and  _562
REMARK  216  A    between atoms: _562  and  _563
REMARK  217  A    between atoms: _562  and  _565
REMARK  218  A    between atoms: _565  and  _566
REMARK  219  A    between atoms: _569  and  _571
REMARK  220  A    between atoms: _571  and  _572
REMARK  221  A    between atoms: _571  and  _574
REMARK  222  A    between atoms: _574  and  _575
REMARK  223  A    between atoms: _580  and  _581
REMARK  224  A    between atoms: _583  and  _585
REMARK  225  A    between atoms: _585  and  _586
REMARK  226  A    between atoms: _589  and  _590
REMARK                            x       y       z     vdW  Elec       q    Type
REMARK                         _______ _______ _______ _____ _____    ______ ____
ROOT
ATOM      1  C   THR A   1       6.190 -11.597  -0.470  0.00  0.00    +0.241 C 
ATOM      2  N   LEU A   2       5.454 -10.837   0.347  0.00  0.00    -0.298 N 
ATOM      3  H   LEU A   2       4.826 -11.293   1.040  0.00  0.00    +0.150 HD
ATOM      4  O   THR A   1       6.977 -11.122  -1.296  0.00  0.00    -0.274 OA
ENDROOT
BRANCH   1   5
ATOM      5  CA  THR A   1       6.043 -13.115  -0.323  0.00  0.00    +0.172 C 
BRANCH   5   6
ATOM      6  N   THR A   1       6.009 -13.513   1.091  0.00  0.00    -0.236 NA
ATOM      7  H   THR A   1       5.157 -13.981   1.460  0.00  0.00    +0.142 HD
ENDBRANCH   5   6
BRANCH   5   8
ATOM      8  CB  THR A   1       4.782 -13.629  -1.067  0.00  0.00    +0.135 C 
ATOM      9  CG2 THR A   1       4.839 -13.278  -2.552  0.00  0.00    +0.034 C 
BRANCH   8  10
ATOM     10  OG1 THR A   1       4.703 -15.055  -0.946  0.00  0.00    -0.383 OA
ATOM     11  HG1 THR A   1       4.645 -15.301   0.011  0.00  0.00    +0.210 HD
ENDBRANCH   8  10
ENDBRANCH   5   8
ENDBRANCH   1   5
BRANCH   2  12
ATOM     12  CA  LEU A   2       5.514  -9.372   0.286  0.00  0.00    +0.137 C 
BRANCH  12  13
ATOM     13  C   LEU A   2       6.885  -8.873   0.705  0.00  0.00    +0.227 C 
ATOM     14  O   LEU A   2       7.440  -7.951   0.104  0.00  0.00    -0.286 OA
ENDBRANCH  12  13
BRANCH  12  15
ATOM     15  CB  LEU A   2       4.430  -8.758   1.166  0.00  0.00    +0.028 C 
BRANCH  15  16
ATOM     16  CG  LEU A   2       4.291  -7.229   1.204  0.00  0.00    +0.002 C 
ATOM     17  CD2 LEU A   2       3.107  -6.876   2.097  0.00  0.00    +0.000 C 
ATOM     18  CD1 LEU A   2       4.069  -6.684  -0.208  0.00  0.00    +0.000 C 
ENDBRANCH  15  16
ENDBRANCH  12  15
ENDBRANCH   2  12
TORSDOF 8
REMARK  Name = ../refined-set-2016/4lvt/4lvt_pocket.pdb
REMARK  226 active torsions:
REMARK  status: ('A' for Active; 'I' for Inactive)
REMARK    1  A    between atoms: _1  and  _3
REMARK    2  A    between atoms: _3  and  _4
REMARK    3  A    between atoms: _3  and  _6
REMARK    4  A    between atoms: _6  and  _7
REMARK    5  A    between atoms: _12  and  _13
REMARK    6  A    between atoms: _15  and  _17
REMARK    7  A    between atoms: _17  and  _18
REMARK    8  A    between atoms: _17  and  _20
REMARK    9  A    between atoms: _20  and  _21
REMARK   10  A    between atoms: _24  and  _26
REMARK   11  A    between atoms: _26  and  _27
REMARK   12  A    between atoms: _26  and  _29
REMARK   13  A    between atoms: _29  and  _30
REMARK   14  A    between atoms: _33  and  _35
REMARK   15  A    between atoms: _35  and  _36
REMARK   16  A    between atoms: _35  and  _38
REMARK   17  A    between atoms: _38  and  _39
REMARK   18  A    between atoms: _39  and  _40
REMARK   19  A    between atoms: _45  and  _47
REMARK   20  A    between atoms: _47  and  _48
REMARK   21  A    between atoms: _51  and  _53
REMARK   22  A    between atoms: _53  and  _54
REMARK   23  A    between atoms: _56  and  _58
REMARK   24  A    between atoms: _58  and  _59
REMARK   25  A    between atoms: _58  and  _61
REMARK   26  A    between atoms: _61  and  _62
REMARK   27  A    between atoms: _65  and  _67
REMARK   28  A    between atoms: _67  and  _68
REMARK   29  A    between atoms: _67  and  _70
REMARK   30  A    between atoms: _70  and  _71
REMARK   31  A    between atoms: _74  and  _76
REMARK   32  A    between atoms: _76  and  _77
REMARK   33  A    between atoms: _76  and  _79
REMARK   34  A    between atoms: _79  and  _80
REMARK   35  A    between atoms: _86  and  _88
REMARK   36  A    between atoms: _88  and  _89
REMARK   37  A    between atoms: _88  and  _91
REMARK   38  A    between atoms: _91  and  _92
REMARK   39  A    between atoms: _94  and  _96
REMARK   40  A    between atoms: _96  and  _97
REMARK   41  A    between atoms: _96  and  _99
REMARK   42  A    between atoms: _99  and  _100
REMARK   43  A    between atoms: _100  and  _101
REMARK   44  A    between atoms: _101  and  _102
REMARK   45  A    between atoms: _111  and  _113
REMARK   46  A    between atoms: _113  and  _114
REMARK   47  A    between atoms: _113  and  _116
REMARK   48  A    between atoms: _116  and  _117
REMARK   49  A    between atoms: _117  and  _118
REMARK   50  A    between atoms: _118  and  _119
REMARK   51  A    between atoms: _128  and  _130
REMARK   52  A    between atoms: _130  and  _131
REMARK   53  A    between atoms: _130  and  _133
REMARK   54  A    between atoms: _133  and  _134
REMARK   55  A    between atoms: _139  and  _140
REMARK   56  A    between atoms: _142  and  _144
REMARK   57  A    between atoms: _144  and  _145
REMARK   58  A    between atoms: _144  and  _147
REMARK   59  A    between atoms: _147  and  _148
REMARK   60  A    between atoms: _148  and  _149
REMARK   61  A    between atoms: _149  and  _150
REMARK   62  A    between atoms: _159  and  _161
REMARK   63  A    between atoms: _161  and  _162
REMARK   64  A    between atoms: _161  and  _164
REMARK   65  A    between atoms: _164  and  _165
REMARK   66  A    between atoms: _165  and  _166
REMARK   67  A    between atoms: _166  and  _167
REMARK   68  A    between atoms: _176  and  _178
REMARK   69  A    between atoms: _178  and  _179
REMARK   70  A    between atoms: _178  and  _181
REMARK   71  A    between atoms: _181  and  _182
REMARK   72  A    between atoms: _185  and  _187
REMARK   73  A    between atoms: _187  and  _188
REMARK   74  A    between atoms: _187  and  _190
REMARK   75  A    between atoms: _190  and  _191
REMARK   76  A    between atoms: _197  and  _199
REMARK   77  A    between atoms: _199  and  _200
REMARK   78  A    between atoms: _203  and  _205
REMARK   79  A    between atoms: _205  and  _206
REMARK   80  A    between atoms: _205  and  _208
REMARK   81  A    between atoms: _208  and  _209
REMARK   82  A    between atoms: _209  and  _210
REMARK   83  A    between atoms: _213  and  _215
REMARK   84  A    between atoms: _215  and  _216
REMARK   85  A    between atoms: _215  and  _218
REMARK   86  A    between atoms: _218  and  _219
REMARK   87  A    between atoms: _219  and  _220
REMARK   88  A    between atoms: _222  and  _224
REMARK   89  A    between atoms: _224  and  _225
REMARK   90  A    between atoms: _224  and  _227
REMARK   91  A    between atoms: _227  and  _228
REMARK   92  A    between atoms: _230  and  _232
REMARK   93  A    between atoms: _232  and  _233
REMARK   94  A    between atoms: _232  and  _235
REMARK   95  A    between atoms: _235  and  _236
REMARK   96  A    between atoms: _236  and  _237
REMARK   97  A    between atoms: _237  and  _238
REMARK   98  A    between atoms: _247  and  _249
REMARK   99  A    between atoms: _249  and  _250
REMARK  100  A    between atoms: _249  and  _252
REMARK  101  A    between atoms: _252  and  _253
REMARK  102  A    between atoms: _256  and  _258
REMARK  103  A    between atoms: _258  and  _259
REMARK  104  A    between atoms: _258  and  _261
REMARK  105  A    between atoms: _264  and  _266
REMARK  106  A    between atoms: _266  and  _267
REMARK  107  A    between atoms: _266  and  _269
REMARK  108  A    between atoms: _272  and  _274
REMARK  109  A    between atoms: _274  and  _275
REMARK  110  A    between atoms: _274  and  _277
REMARK  111  A    between atoms: _277  and  _278
REMARK  112  A    between atoms: _278  and  _279
REMARK  113  A    between atoms: _282  and  _284
REMARK  114  A    between atoms: _284  and  _285
REMARK  115  A    between atoms: _284  and  _287
REMARK  116  A    between atoms: _287  and  _288
REMARK  117  A    between atoms: _288  and  _289
REMARK  118  A    between atoms: _292  and  _294
REMARK  119  A    between atoms: _294  and  _295
REMARK  120  A    between atoms: _294  and  _297
REMARK  121  A    between atoms: _297  and  _298
REMARK  122  A    between atoms: _301  and  _303
REMARK  123  A    between atoms: _303  and  _304
REMARK  124  A    between atoms: _303  and  _306
REMARK  125  A    between atoms: _306  and  _307
REMARK  126  A    between atoms: _313  and  _315
REMARK  127  A    between atoms: _315  and  _316
REMARK  128  A    between atoms: _315  and  _318
REMARK  129  A    between atoms: _318  and  _319
REMARK  130  A    between atoms: _319  and  _320
REMARK  131  A    between atoms: _320  and  _321
REMARK  132  A    between atoms: _330  and  _332
REMARK  133  A    between atoms: _332  and  _333
REMARK  134  A    between atoms: _332  and  _335
REMARK  135  A    between atoms: _335  and  _336
REMARK  136  A    between atoms: _339  and  _341
REMARK  137  A    between atoms: _341  and  _342
REMARK  138  A    between atoms: _341  and  _344
REMARK  139  A    between atoms: _347  and  _349
REMARK  140  A    between atoms: _349  and  _350
REMARK  141  A    between atoms: _349  and  _352
REMARK  142  A    between atoms: _352  and  _353
REMARK  143  A    between atoms: _358  and  _360
REMARK  144  A    between atoms: _360  and  _361
REMARK  145  A    between atoms: _360  and  _363
REMARK  146  A    between atoms: _363  and  _364
REMARK  147  A    between atoms: _374  and  _376
REMARK  148  A    between atoms: _376  and  _377
REMARK  149  A    between atoms: _379  and  _381
REMARK  150  A    between atoms: _381  and  _382
REMARK  151  A    between atoms: _381  and  _384
REMARK  152  A    between atoms: _384  and  _385
REMARK  153  A    between atoms: _385  and  _386
REMARK  154  A    between atoms: _386  and  _387
REMARK  155  A    between atoms: _396  and  _398
REMARK  156  A    between atoms: _398  and  _399
REMARK  157  A    between atoms: _398  and  _401
REMARK  158  A    between atoms: _401  and  _402
REMARK  159  A    between atoms: _405  and  _407
REMARK  160  A    between atoms: _407  and  _408
REMARK  161  A    between atoms: _407  and  _410
REMARK  162  A    between atoms: _413  and  _415
REMARK  163  A    between atoms: _415  and  _416
REMARK  164  A    between atoms: _419  and  _421
REMARK  165  A    between atoms: _421  and  _422
REMARK  166  A    between atoms: _421  and  _424
REMARK  167  A    between atoms: _424  and  _425
REMARK  168  A    between atoms: _431  and  _433
REMARK  169  A    between atoms: _433  and  _434
REMARK  170  A    between atoms: _433  and  _436
REMARK  171  A    between atoms: _436  and  _437
REMARK  172  A    between atoms: _443  and  _445
REMARK  173  A    between atoms: _445  and  _446
REMARK  174  A    between atoms: _445  and  _448
REMARK  175  A    between atoms: _448  and  _449
REMARK  176  A    between atoms: _449  and  _450
REMARK  177  A    between atoms: _453  and  _455
REMARK  178  A    between atoms: _455  and  _456
REMARK  179  A    between atoms: _455  and  _458
REMARK  180  A    between atoms: _458  and  _459
REMARK  181  A    between atoms: _465  and  _467
REMARK  182  A    between atoms: _467  and  _468
REMARK  183  A    between atoms: _470  and  _472
REMARK  184  A    between atoms: _472  and  _473
REMARK  185  A    between atoms: _475  and  _477
REMARK  186  A    between atoms: _477  and  _478
REMARK  187  A    between atoms: _477  and  _480
REMARK  188  A    between atoms: _483  and  _485
REMARK  189  A    between atoms: _485  and  _486
REMARK  190  A    between atoms: _485  and  _488
REMARK  191  A    between atoms: _488  and  _489
REMARK  192  A    between atoms: _489  and  _490
REMARK  193  A    between atoms: _492  and  _494
REMARK  194  A    between atoms: _494  and  _495
REMARK  195  A    between atoms: _494  and  _497
REMARK  196  A    between atoms: _497  and  _498
REMARK  197  A    between atoms: _508  and  _510
REMARK  198  A    between atoms: _510  and  _511
REMARK  199  A    between atoms: _510  and  _513
REMARK  200  A    between atoms: _513  and  _514
REMARK  201  A    between atoms: _524  and  _526
REMARK  202  A    between atoms: _526  and  _527
REMARK  203  A    between atoms: _530  and  _532
REMARK  204  A    between atoms: _532  and  _533
REMARK  205  A    between atoms: _532  and  _535
REMARK  206  A    between atoms: _535  and  _536
REMARK  207  A    between atoms: _542  and  _544
REMARK  208  A    between atoms: _544  and  _545
REMARK  209  A    between atoms: _544  and  _547
REMARK  210  A    between atoms: _550  and  _552
REMARK  211  A    between atoms: _552  and  _553
REMARK  212  A    between atoms: _552  and  _555
REMARK  213  A    between atoms: _555  and  _556
REMARK  214  A    between atoms: _556  and  _557
REMARK  215  A    between atoms: _560  and  _562
REMARK  216  A    between atoms: _562  and  _563
REMARK  217  A    between atoms: _562  and  _565
REMARK  218  A    between atoms: _565  and  _566
REMARK  219  A    between atoms: _569  and  _571
REMARK  220  A    between atoms: _571  and  _572
REMARK  221  A    between atoms: _571  and  _574
REMARK  222  A    between atoms: _574  and  _575
REMARK  223  A    between atoms: _580  and  _581
REMARK  224  A    between atoms: _583  and  _585
REMARK  225  A    between atoms: _585  and  _586
REMARK  226  A    between atoms: _589  and  _590
REMARK                            x       y       z     vdW  Elec       q    Type
REMARK                         _______ _______ _______ _____ _____    ______ ____
ROOT
ATOM      1  CA  TYR A  10      14.833   0.293  -8.183  0.00  0.00    +0.153 C 
ENDROOT
BRANCH   1   3
ATOM      2  C   ARG A   9      15.677  -1.858  -8.966  0.00  0.00    +0.241 C 
ATOM      3  N   TYR A  10      15.075  -1.139  -8.018  0.00  0.00    -0.297 N 
ATOM      4  H   TYR A  10      14.771  -1.608  -7.141  0.00  0.00    +0.150 HD
ATOM      5  O   ARG A   9      16.045  -1.365 -10.035  0.00  0.00    -0.273 OA
BRANCH   2   6
ATOM      6  CA  ARG A   9      15.904  -3.334  -8.669  0.00  0.00    +0.149 C 
BRANCH   6   9
ATOM      7  C   ARG A   8      17.202  -3.167  -6.604  0.00  0.00    +0.241 C 
ATOM      8  O   ARG A   8      18.060  -2.465  -7.137  0.00  0.00    -0.273 OA
ATOM      9  N   ARG A   9      16.123  -3.607  -7.255  0.00  0.00    -0.297 N 
ATOM     10  H   ARG A   9      15.415  -4.164  -6.735  0.00  0.00    +0.150 HD
BRANCH   7  11
ATOM     11  CA  ARG A   8      17.297  -3.529  -5.128  0.00  0.00    +0.149 C 
BRANCH  11  14
ATOM     12  C   SER A   7      15.707  -2.073  -4.013  0.00  0.00    +0.243 C 
ATOM     13  O   SER A   7      16.485  -1.139  -4.048  0.00  0.00    -0.273 OA
ATOM     14  N   ARG A   8      16.014  -3.278  -4.471  0.00  0.00    -0.297 N 
ATOM     15  H   ARG A   8      15.333  -4.057  -4.362  0.00  0.00    +0.150 HD
BRANCH  12  16
ATOM     16  CA  SER A   7      14.308  -1.883  -3.422  0.00  0.00    +0.178 C 
BRANCH  16  18
ATOM     17  C   PHE A   6      12.904  -2.855  -5.139  0.00  0.00    +0.241 C 
ATOM     18  N   SER A   7      13.305  -2.848  -3.878  0.00  0.00    -0.295 N 
ATOM     19  H   SER A   7      12.905  -3.533  -3.206  0.00  0.00    +0.150 HD
ATOM     20  O   PHE A   6      13.336  -2.075  -5.973  0.00  0.00    -0.273 OA
BRANCH  17  21
ATOM     21  CA  PHE A   6      11.800  -3.822  -5.500  0.00  0.00    +0.153 C 
BRANCH  21  23
ATOM     22  C   ASP A   5      13.220  -5.780  -5.388  0.00  0.00    +0.241 C 
ATOM     23  N   PHE A   6      12.089  -5.164  -5.031  0.00  0.00    -0.297 N 
ATOM     24  H   PHE A   6      11.410  -5.651  -4.412  0.00  0.00    +0.150 HD
ATOM     25  O   ASP A   5      14.013  -5.311  -6.198  0.00  0.00    -0.273 OA
BRANCH  22  26
ATOM     26  CA  ASP A   5      13.423  -7.170  -4.823  0.00  0.00    +0.160 C 
BRANCH  26  29
ATOM     27  C   ASP A   4      13.847  -6.474  -2.525  0.00  0.00    +0.241 C 
ATOM     28  O   ASP A   4      14.802  -5.767  -2.876  0.00  0.00    -0.273 OA
ATOM     29  N   ASP A   5      13.115  -7.176  -3.389  0.00  0.00    -0.297 N 
ATOM     30  H   ASP A   5      12.312  -7.738  -3.041  0.00  0.00    +0.150 HD
BRANCH  27  31
ATOM     31  CA  ASP A   4      13.420  -6.540  -1.060  0.00  0.00    +0.160 C 
BRANCH  31  33
ATOM     32  C   GLY A   3      11.270  -5.447  -1.445  0.00  0.00    +0.243 C 
ATOM     33  N   ASP A   4      11.954  -6.503  -1.012  0.00  0.00    -0.296 N 
ATOM     34  H   ASP A   4      11.437  -7.321  -0.631  0.00  0.00    +0.150 HD
ATOM     35  O   GLY A   3      11.824  -4.427  -1.869  0.00  0.00    -0.273 OA
BRANCH  32  36
ATOM     36  CA  GLY A   3       9.750  -5.561  -1.405  0.00  0.00    +0.176 C 
BRANCH  36  38
ATOM     37  C   ALA A   2       9.434  -7.318  -3.043  0.00  0.00    +0.241 C 
ATOM     38  N   GLY A   3       9.292  -6.899  -1.795  0.00  0.00    -0.295 N 
ATOM     39  H   GLY A   3       8.853  -7.522  -1.087  0.00  0.00    +0.150 HD
ATOM     40  O   ALA A   2       9.916  -6.592  -3.925  0.00  0.00    -0.273 OA
BRANCH  37  41
ATOM     41  CA  ALA A   2       8.932  -8.738  -3.364  0.00  0.00    +0.149 C 
ATOM     42  CB  ALA A   2       7.416  -8.709  -3.710  0.00  0.00    +0.031 C 
BRANCH  41  44
ATOM     43  C   GLN A   1      10.450  -9.869  -1.840  0.00  0.00    +0.238 C 
ATOM     44  N   ALA A   2       9.199  -9.652  -2.240  0.00  0.00    -0.297 N 
ATOM     45  H   ALA A   2       8.410 -10.128  -1.759  0.00  0.00    +0.150 HD
ATOM     46  O   GLN A   1      11.416  -9.353  -2.394  0.00  0.00    -0.274 OA
BRANCH  43  47
ATOM     47  CA  GLN A   1      10.649 -10.811  -0.668  0.00  0.00    +0.145 C 
BRANCH  47  48
ATOM     48  N   GLN A   1       9.725 -10.510   0.421  0.00  0.00    -0.238 NA
ATOM     49  H   GLN A   1       8.982 -11.195   0.667  0.00  0.00    +0.142 HD
ENDBRANCH  47  48
BRANCH  47  50
ATOM     50  CB  GLN A   1      10.490 -12.264  -1.141  0.00  0.00    +0.036 C 
BRANCH  50  51
ATOM     51  CG  GLN A   1      11.000 -13.276  -0.115  0.00  0.00    +0.087 C 
BRANCH  51  52
ATOM     52  CD  GLN A   1      10.669 -14.719  -0.478  0.00  0.00    +0.219 C 
ATOM     53  NE2 GLN A   1      11.456 -15.646   0.049  0.00  0.00    -0.329 N 
ATOM     54 HE21 GLN A   1      12.252 -15.368   0.657  0.00  0.00    +0.145 HD
ATOM     55 HE22 GLN A   1      11.277 -16.652  -0.146  0.00  0.00    +0.145 HD
ATOM     56  OE1 GLN A   1       9.714 -14.997  -1.204  0.00  0.00    -0.275 OA
ENDBRANCH  51  52
ENDBRANCH  50  51
ENDBRANCH  47  50
ENDBRANCH  43  47
ENDBRANCH  41  44
ENDBRANCH  37  41
ENDBRANCH  36  38
ENDBRANCH  32  36
ENDBRANCH  31  33
BRANCH  31  57
ATOM     57  CB  ASP A   4      13.966  -7.815  -0.400  0.00  0.00    +0.143 C 
BRANCH  57  58
ATOM     58  CG  ASP A   4      13.920  -7.743   1.117  0.00  0.00    +0.367 C 
ATOM     59  OD2 ASP A   4      14.056  -8.796   1.777  0.00  0.00    -0.246 OA
ATOM     60  OD1 ASP A   4      13.679  -6.640   1.646  0.00  0.00    -0.246 OA
ENDBRANCH  57  58
ENDBRANCH  31  57
ENDBRANCH  27  31
ENDBRANCH  26  29
BRANCH  26  61
ATOM     61  CB  ASP A   5      12.494  -8.109  -5.594  0.00  0.00    +0.143 C 
BRANCH  61  62
ATOM     62  CG  ASP A   5      12.938  -9.562  -5.533  0.00  0.00    +0.367 C 
ATOM     63  OD2 ASP A   5      13.972  -9.858  -4.884  0.00  0.00    -0.246 OA
ATOM     64  OD1 ASP A   5      12.180 -10.422  -6.045  0.00  0.00    -0.246 OA
ENDBRANCH  61  62
ENDBRANCH  26  61
ENDBRANCH  22  26
ENDBRANCH  21  23
BRANCH  21  65
ATOM     65  CB  PHE A   6      10.474  -3.296  -4.926  0.00  0.00    +0.055 C 
BRANCH  65  66
ATOM     66  CG  PHE A   6      10.245  -1.835  -5.205  0.00  0.00    -0.020 A 
ATOM     67  CD2 PHE A   6      10.674  -0.877  -4.293  0.00  0.00    -0.004 A 
ATOM     68  CE2 PHE A   6      10.482   0.473  -4.551  0.00  0.00    -0.000 A 
ATOM     69  CZ  PHE A   6       9.901   0.884  -5.763  0.00  0.00    -0.000 A 
ATOM     70  CE1 PHE A   6       9.539  -0.063  -6.714  0.00  0.00    -0.000 A 
ATOM     71  CD1 PHE A   6       9.694  -1.421  -6.421  0.00  0.00    -0.004 A 
ENDBRANCH  65  66
ENDBRANCH  21  65
ENDBRANCH  17  21
ENDBRANCH  16  18
BRANCH  16  72
ATOM     72  CB  SER A   7      14.386  -1.857  -1.900  0.00  0.00    +0.166 C 
BRANCH  72  73
ATOM     73  OG  SER A   7      14.979  -3.060  -1.416  0.00  0.00    -0.380 OA
ATOM     74  H   SER A   7      15.893  -3.148  -1.786  0.00  0.00    +0.211 HD
ENDBRANCH  72  73
ENDBRANCH  16  72
ENDBRANCH  12  16
ENDBRANCH  11  14
BRANCH  11  75
ATOM     75  CB  ARG A   8      17.714  -5.006  -4.969  0.00  0.00    +0.033 C 
BRANCH  75  76
ATOM     76  CG  ARG A   8      19.042  -5.338  -5.685  0.00  0.00    +0.045 C 
BRANCH  76  77
ATOM     77  CD  ARG A   8      19.408  -6.799  -5.443  0.00  0.00    +0.174 C 
BRANCH  77  78
ATOM     78  NE  ARG A   8      18.414  -7.699  -6.023  0.00  0.00    -0.265 N 
ATOM     79  HE  ARG A   8      17.685  -8.087  -5.391  0.00  0.00    +0.259 HD
ATOM     80  CZ  ARG A   8      18.376  -8.057  -7.305  0.00  0.00    +0.342 C 
ATOM     81  NH2 ARG A   8      17.429  -8.879  -7.734  0.00  0.00    -0.292 N 
ATOM     82 HH21 ARG A   8      16.717  -9.244  -7.070  0.00  0.00    +0.255 HD
ATOM     83 HH22 ARG A   8      17.398  -9.159  -8.735  0.00  0.00    +0.255 HD
ATOM     84  NH1 ARG A   8      19.275  -7.586  -8.160  0.00  0.00    -0.292 N 
ATOM     85 HH11 ARG A   8      20.015  -6.933  -7.830  0.00  0.00    +0.255 HD
ATOM     86 HH12 ARG A   8      19.240  -7.869  -9.160  0.00  0.00    +0.255 HD
ENDBRANCH  77  78
ENDBRANCH  76  77
ENDBRANCH  75  76
ENDBRANCH  11  75
ENDBRANCH   7  11
ENDBRANCH   6   9
BRANCH   6  87
ATOM     87  CB  ARG A   9      14.735  -4.187  -9.184  0.00  0.00    +0.033 C 
BRANCH  87  88
ATOM     88  CG  ARG A   9      14.959  -5.709  -9.008  0.00  0.00    +0.045 C 
BRANCH  88  89
ATOM     89  CD  ARG A   9      13.706  -6.502  -9.418  0.00  0.00    +0.174 C 
BRANCH  89  90
ATOM     90  NE  ARG A   9      13.952  -7.943  -9.422  0.00  0.00    -0.265 N 
ATOM     91  HE  ARG A   9      14.390  -8.358  -8.575  0.00  0.00    +0.259 HD
ATOM     92  CZ  ARG A   9      13.658  -8.762 -10.426  0.00  0.00    +0.342 C 
ATOM     93  NH2 ARG A   9      13.936 -10.043 -10.302  0.00  0.00    -0.292 N 
ATOM     94 HH21 ARG A   9      14.378 -10.397  -9.430  0.00  0.00    +0.255 HD
ATOM     95 HH22 ARG A   9      13.714 -10.701 -11.076  0.00  0.00    +0.255 HD
ATOM     96  NH1 ARG A   9      13.097  -8.311 -11.550  0.00  0.00    -0.292 N 
ATOM     97 HH11 ARG A   9      12.881  -7.299 -11.654  0.00  0.00    +0.255 HD
ATOM     98 HH12 ARG A   9      12.876  -8.972 -12.322  0.00  0.00    +0.255 HD
ENDBRANCH  89  90
ENDBRANCH  88  89
ENDBRANCH  87  88
ENDBRANCH   6  87
ENDBRANCH   2   6
ENDBRANCH   1   3
BRANCH   1  99
ATOM     99  C   TYR A  10      15.561   1.053  -7.079  0.00  0.00    +0.241 C 
ATOM    100  O   TYR A  10      14.991   1.850  -6.347  0.00  0.00    -0.273 OA
ATOM    101  N   ARG A  11      16.850   0.769  -6.980  0.00  0.00    -0.297 N 
ATOM    102  H   ARG A  11      17.275   0.120  -7.673  0.00  0.00    +0.150 HD
BRANCH 101 103
ATOM    103  CA  ARG A  11      17.684   1.326  -5.949  0.00  0.00    +0.149 C 
BRANCH 103 104
ATOM    104  C   ARG A  11      17.807   2.845  -6.004  0.00  0.00    +0.241 C 
ATOM    105  O   ARG A  11      17.869   3.492  -4.966  0.00  0.00    -0.273 OA
ATOM    106  N   ARG A  12      17.861   3.429  -7.193  0.00  0.00    -0.297 N 
ATOM    107  H   ARG A  12      17.819   2.866  -8.066  0.00  0.00    +0.150 HD
BRANCH 106 108
ATOM    108  CA  ARG A  12      17.981   4.884  -7.244  0.00  0.00    +0.149 C 
BRANCH 108 109
ATOM    109  C   ARG A  12      16.725   5.555  -6.635  0.00  0.00    +0.241 C 
ATOM    110  O   ARG A  12      16.826   6.496  -5.859  0.00  0.00    -0.273 OA
ATOM    111  N   ASP A  13      15.547   5.061  -6.992  0.00  0.00    -0.297 N 
ATOM    112  H   ASP A  13      15.505   4.279  -7.676  0.00  0.00    +0.150 HD
BRANCH 111 113
ATOM    113  CA  ASP A  13      14.299   5.604  -6.433  0.00  0.00    +0.160 C 
BRANCH 113 114
ATOM    114  C   ASP A  13      14.302   5.436  -4.907  0.00  0.00    +0.241 C 
ATOM    115  O   ASP A  13      13.999   6.370  -4.163  0.00  0.00    -0.273 OA
ATOM    116  N   PHE A  14      14.648   4.228  -4.458  0.00  0.00    -0.297 N 
ATOM    117  H   PHE A  14      14.897   3.492  -5.149  0.00  0.00    +0.150 HD
BRANCH 116 118
ATOM    118  CA  PHE A  14      14.692   3.897  -3.036  0.00  0.00    +0.153 C 
BRANCH 118 119
ATOM    119  C   PHE A  14      15.657   4.816  -2.289  0.00  0.00    +0.241 C 
ATOM    120  O   PHE A  14      15.331   5.363  -1.247  0.00  0.00    -0.273 OA
ATOM    121  N   ALA A  15      16.863   4.941  -2.824  0.00  0.00    -0.297 N 
ATOM    122  H   ALA A  15      17.067   4.437  -3.710  0.00  0.00    +0.150 HD
BRANCH 121 123
ATOM    123  CA  ALA A  15      17.914   5.751  -2.228  0.00  0.00    +0.149 C 
ATOM    124  CB  ALA A  15      19.236   5.537  -2.984  0.00  0.00    +0.031 C 
BRANCH 123 125
ATOM    125  C   ALA A  15      17.554   7.226  -2.206  0.00  0.00    +0.241 C 
ATOM    126  O   ALA A  15      17.841   7.911  -1.230  0.00  0.00    -0.273 OA
ATOM    127  N   GLU A  16      16.916   7.708  -3.271  0.00  0.00    -0.297 N 
ATOM    128  H   GLU A  16      16.686   7.070  -4.060  0.00  0.00    +0.150 HD
BRANCH 127 129
ATOM    129  CA  GLU A  16      16.535   9.109  -3.352  0.00  0.00    +0.149 C 
BRANCH 129 130
ATOM    130  C   GLU A  16      15.434   9.444  -2.370  0.00  0.00    +0.241 C 
ATOM    131  O   GLU A  16      15.474  10.482  -1.693  0.00  0.00    -0.273 OA
ATOM    132  N   MET A  17      14.441   8.566  -2.296  0.00  0.00    -0.297 N 
ATOM    133  H   MET A  17      14.452   7.717  -2.897  0.00  0.00    +0.150 HD
BRANCH 132 134
ATOM    134  CA  MET A  17      13.338   8.790  -1.376  0.00  0.00    +0.149 C 
BRANCH 134 135
ATOM    135  C   MET A  17      13.920   8.796   0.034  0.00  0.00    +0.241 C 
ATOM    136  O   MET A  17      13.624   9.676   0.823  0.00  0.00    -0.273 OA
ATOM    137  N   SER A  18      14.752   7.806   0.344  0.00  0.00    -0.296 N 
ATOM    138  H   SER A  18      14.978   7.088  -0.374  0.00  0.00    +0.150 HD
BRANCH 137 139
ATOM    139  CA  SER A  18      15.355   7.704   1.670  0.00  0.00    +0.166 C 
BRANCH 139 140
ATOM    140  C   SER A  18      16.129   8.948   2.107  0.00  0.00    +0.229 C 
ATOM    141  O   SER A  18      16.100   9.319   3.271  0.00  0.00    -0.286 OA
ENDBRANCH 139 140
BRANCH 139 142
ATOM    142  CB  SER A  18      16.298   6.505   1.749  0.00  0.00    +0.165 C 
BRANCH 142 143
ATOM    143  OG  SER A  18      15.596   5.291   1.584  0.00  0.00    -0.380 OA
ATOM    144  H   SER A  18      15.151   5.286   0.699  0.00  0.00    +0.211 HD
ENDBRANCH 142 143
ENDBRANCH 139 142
ENDBRANCH 137 139
ENDBRANCH 134 135
BRANCH 134 145
ATOM    145  CB  MET A  17      12.278   7.681  -1.524  0.00  0.00    +0.041 C 
BRANCH 145 146
ATOM    146  CG  MET A  17      11.104   7.834  -0.581  0.00  0.00    +0.060 C 
BRANCH 146 147
ATOM    147  SD  MET A  17      10.148   9.309  -0.949  0.00  0.00    -0.139 S 
ATOM    148  CE  MET A  17       9.242   8.807  -2.390  0.00  0.00    +0.069 C 
ENDBRANCH 146 147
ENDBRANCH 145 146
ENDBRANCH 134 145
ENDBRANCH 132 134
ENDBRANCH 129 130
BRANCH 129 149
ATOM    149  CB  GLU A  16      16.117   9.488  -4.785  0.00  0.00    +0.041 C 
BRANCH 149 150
ATOM    150  CG  GLU A  16      17.317   9.886  -5.649  0.00  0.00    +0.116 C 
BRANCH 150 151
ATOM    151  CD  GLU A  16      16.954  10.153  -7.096  0.00  0.00    +0.365 C 
ATOM    152  OE2 GLU A  16      15.750  10.296  -7.392  0.00  0.00    -0.246 OA
ATOM    153  OE1 GLU A  16      17.878  10.225  -7.936  0.00  0.00    -0.246 OA
ENDBRANCH 150 151
ENDBRANCH 149 150
ENDBRANCH 129 149
ENDBRANCH 127 129
ENDBRANCH 123 125
ENDBRANCH 121 123
ENDBRANCH 118 119
BRANCH 118 154
ATOM    154  CB  PHE A  14      15.148   2.442  -2.860  0.00  0.00    +0.055 C 
BRANCH 154 155
ATOM    155  CG  PHE A  14      15.164   1.977  -1.430  0.00  0.00    -0.020 A 
ATOM    156  CD2 PHE A  14      16.314   2.083  -0.661  0.00  0.00    -0.004 A 
ATOM    157  CE2 PHE A  14      16.334   1.631   0.658  0.00  0.00    -0.000 A 
ATOM    158  CZ  PHE A  14      15.180   1.091   1.215  0.00  0.00    -0.000 A 
ATOM    159  CE1 PHE A  14      14.033   0.982   0.447  0.00  0.00    -0.000 A 
ATOM    160  CD1 PHE A  14      14.022   1.443  -0.847  0.00  0.00    -0.004 A 
ENDBRANCH 154 155
ENDBRANCH 118 154
ENDBRANCH 116 118
ENDBRANCH 113 114
BRANCH 113 161
ATOM    161  CB  ASP A  13      13.101   4.868  -7.034  0.00  0.00    +0.143 C 
BRANCH 161 162
ATOM    162  CG  ASP A  13      12.911   5.175  -8.504  0.00  0.00    +0.367 C 
ATOM    163  OD2 ASP A  13      12.671   6.345  -8.838  0.00  0.00    -0.246 OA
ATOM    164  OD1 ASP A  13      13.043   4.263  -9.337  0.00  0.00    -0.246 OA
ENDBRANCH 161 162
ENDBRANCH 113 161
ENDBRANCH 111 113
ENDBRANCH 108 109
BRANCH 108 165
ATOM    165  CB  ARG A  12      18.220   5.397  -8.664  0.00  0.00    +0.033 C 
BRANCH 165 166
ATOM    166  CG  ARG A  12      18.336   6.935  -8.696  0.00  0.00    +0.045 C 
BRANCH 166 167
ATOM    167  CD  ARG A  12      18.533   7.494 -10.088  0.00  0.00    +0.174 C 
BRANCH 167 168
ATOM    168  NE  ARG A  12      19.937   7.450 -10.470  0.00  0.00    -0.265 N 
ATOM    169  CZ  ARG A  12      20.869   8.276 -10.004  0.00  0.00    +0.342 C 
ATOM    170  NH2 ARG A  12      20.546   9.217  -9.126  0.00  0.00    -0.292 N 
ATOM    171 HH21 ARG A  12      21.276   9.862  -8.763  0.00  0.00    +0.255 HD
ATOM    172 HH22 ARG A  12      19.562   9.309  -8.801  0.00  0.00    +0.255 HD
ATOM    173  NH1 ARG A  12      22.128   8.157 -10.414  0.00  0.00    -0.292 N 
ATOM    174 HH11 ARG A  12      22.857   8.803 -10.049  0.00  0.00    +0.255 HD
ATOM    175 HH12 ARG A  12      22.384   7.418 -11.099  0.00  0.00    +0.255 HD
ATOM    176  HE  ARG A  12      20.231   6.723 -11.154  0.00  0.00    +0.259 HD
ENDBRANCH 167 168
ENDBRANCH 166 167
ENDBRANCH 165 166
ENDBRANCH 108 165
ENDBRANCH 106 108
ENDBRANCH 103 104
BRANCH 103 177
ATOM    177  CB  ARG A  11      19.071   0.672  -5.992  0.00  0.00    +0.033 C 
BRANCH 177 178
ATOM    178  CG  ARG A  11      20.031   1.251  -4.988  0.00  0.00    +0.045 C 
BRANCH 178 179
ATOM    179  CD  ARG A  11      19.432   1.149  -3.614  0.00  0.00    +0.174 C 
BRANCH 179 180
ATOM    180  NE  ARG A  11      20.278   1.809  -2.623  0.00  0.00    -0.265 N 
ATOM    181  CZ  ARG A  11      20.174   1.631  -1.312  0.00  0.00    +0.342 C 
ATOM    182  NH2 ARG A  11      20.993   2.286  -0.498  0.00  0.00    -0.292 N 
ATOM    183 HH21 ARG A  11      20.919   2.153   0.531  0.00  0.00    +0.255 HD
ATOM    184 HH22 ARG A  11      21.708   2.932  -0.889  0.00  0.00    +0.255 HD
ATOM    185  NH1 ARG A  11      19.281   0.782  -0.820  0.00  0.00    -0.292 N 
ATOM    186 HH11 ARG A  11      19.204   0.646   0.208  0.00  0.00    +0.255 HD
ATOM    187 HH12 ARG A  11      18.658   0.252  -1.463  0.00  0.00    +0.255 HD
ATOM    188  HE  ARG A  11      21.011   2.462  -2.968  0.00  0.00    +0.259 HD
ENDBRANCH 179 180
ENDBRANCH 178 179
ENDBRANCH 177 178
ENDBRANCH 103 177
ENDBRANCH 101 103
ENDBRANCH   1  99
BRANCH   1 189
ATOM    189  CB  TYR A  10      13.333   0.606  -8.196  0.00  0.00    +0.055 C 
BRANCH 189 190
ATOM    190  CG  TYR A  10      12.664   0.018  -9.409  0.00  0.00    -0.020 A 
ATOM    191  CD2 TYR A  10      12.123  -1.271  -9.375  0.00  0.00    -0.001 A 
ATOM    192  CE2 TYR A  10      11.568  -1.846 -10.528  0.00  0.00    +0.036 A 
ATOM    193  CZ  TYR A  10      11.583  -1.127 -11.717  0.00  0.00    +0.134 A 
ATOM    194  CE1 TYR A  10      12.150   0.136 -11.772  0.00  0.00    +0.036 A 
ATOM    195  CD1 TYR A  10      12.704   0.689 -10.627  0.00  0.00    -0.001 A 
BRANCH 193 196
ATOM    196  OH  TYR A  10      11.035  -1.636 -12.871  0.00  0.00    -0.506 OA
ATOM    197  HH  TYR A  10      10.668  -2.538 -12.691  0.00  0.00    +0.292 HD
ENDBRANCH 193 196
ENDBRANCH 189 190
ENDBRANCH   1 189
TORSDOF 78
REMARK  Name = ../refined-set-2016/4lvt/4lvt_pocket.pdb
REMARK  226 active torsions:
REMARK  status: ('A' for Active; 'I' for Inactive)
REMARK    1  A    between atoms: _1  and  _3
REMARK    2  A    between atoms: _3  and  _4
REMARK    3  A    between atoms: _3  and  _6
REMARK    4  A    between atoms: _6  and  _7
REMARK    5  A    between atoms: _12  and  _13
REMARK    6  A    between atoms: _15  and  _17
REMARK    7  A    between atoms: _17  and  _18
REMARK    8  A    between atoms: _17  and  _20
REMARK    9  A    between atoms: _20  and  _21
REMARK   10  A    between atoms: _24  and  _26
REMARK   11  A    between atoms: _26  and  _27
REMARK   12  A    between atoms: _26  and  _29
REMARK   13  A    between atoms: _29  and  _30
REMARK   14  A    between atoms: _33  and  _35
REMARK   15  A    between atoms: _35  and  _36
REMARK   16  A    between atoms: _35  and  _38
REMARK   17  A    between atoms: _38  and  _39
REMARK   18  A    between atoms: _39  and  _40
REMARK   19  A    between atoms: _45  and  _47
REMARK   20  A    between atoms: _47  and  _48
REMARK   21  A    between atoms: _51  and  _53
REMARK   22  A    between atoms: _53  and  _54
REMARK   23  A    between atoms: _56  and  _58
REMARK   24  A    between atoms: _58  and  _59
REMARK   25  A    between atoms: _58  and  _61
REMARK   26  A    between atoms: _61  and  _62
REMARK   27  A    between atoms: _65  and  _67
REMARK   28  A    between atoms: _67  and  _68
REMARK   29  A    between atoms: _67  and  _70
REMARK   30  A    between atoms: _70  and  _71
REMARK   31  A    between atoms: _74  and  _76
REMARK   32  A    between atoms: _76  and  _77
REMARK   33  A    between atoms: _76  and  _79
REMARK   34  A    between atoms: _79  and  _80
REMARK   35  A    between atoms: _86  and  _88
REMARK   36  A    between atoms: _88  and  _89
REMARK   37  A    between atoms: _88  and  _91
REMARK   38  A    between atoms: _91  and  _92
REMARK   39  A    between atoms: _94  and  _96
REMARK   40  A    between atoms: _96  and  _97
REMARK   41  A    between atoms: _96  and  _99
REMARK   42  A    between atoms: _99  and  _100
REMARK   43  A    between atoms: _100  and  _101
REMARK   44  A    between atoms: _101  and  _102
REMARK   45  A    between atoms: _111  and  _113
REMARK   46  A    between atoms: _113  and  _114
REMARK   47  A    between atoms: _113  and  _116
REMARK   48  A    between atoms: _116  and  _117
REMARK   49  A    between atoms: _117  and  _118
REMARK   50  A    between atoms: _118  and  _119
REMARK   51  A    between atoms: _128  and  _130
REMARK   52  A    between atoms: _130  and  _131
REMARK   53  A    between atoms: _130  and  _133
REMARK   54  A    between atoms: _133  and  _134
REMARK   55  A    between atoms: _139  and  _140
REMARK   56  A    between atoms: _142  and  _144
REMARK   57  A    between atoms: _144  and  _145
REMARK   58  A    between atoms: _144  and  _147
REMARK   59  A    between atoms: _147  and  _148
REMARK   60  A    between atoms: _148  and  _149
REMARK   61  A    between atoms: _149  and  _150
REMARK   62  A    between atoms: _159  and  _161
REMARK   63  A    between atoms: _161  and  _162
REMARK   64  A    between atoms: _161  and  _164
REMARK   65  A    between atoms: _164  and  _165
REMARK   66  A    between atoms: _165  and  _166
REMARK   67  A    between atoms: _166  and  _167
REMARK   68  A    between atoms: _176  and  _178
REMARK   69  A    between atoms: _178  and  _179
REMARK   70  A    between atoms: _178  and  _181
REMARK   71  A    between atoms: _181  and  _182
REMARK   72  A    between atoms: _185  and  _187
REMARK   73  A    between atoms: _187  and  _188
REMARK   74  A    between atoms: _187  and  _190
REMARK   75  A    between atoms: _190  and  _191
REMARK   76  A    between atoms: _197  and  _199
REMARK   77  A    between atoms: _199  and  _200
REMARK   78  A    between atoms: _203  and  _205
REMARK   79  A    between atoms: _205  and  _206
REMARK   80  A    between atoms: _205  and  _208
REMARK   81  A    between atoms: _208  and  _209
REMARK   82  A    between atoms: _209  and  _210
REMARK   83  A    between atoms: _213  and  _215
REMARK   84  A    between atoms: _215  and  _216
REMARK   85  A    between atoms: _215  and  _218
REMARK   86  A    between atoms: _218  and  _219
REMARK   87  A    between atoms: _219  and  _220
REMARK   88  A    between atoms: _222  and  _224
REMARK   89  A    between atoms: _224  and  _225
REMARK   90  A    between atoms: _224  and  _227
REMARK   91  A    between atoms: _227  and  _228
REMARK   92  A    between atoms: _230  and  _232
REMARK   93  A    between atoms: _232  and  _233
REMARK   94  A    between atoms: _232  and  _235
REMARK   95  A    between atoms: _235  and  _236
REMARK   96  A    between atoms: _236  and  _237
REMARK   97  A    between atoms: _237  and  _238
REMARK   98  A    between atoms: _247  and  _249
REMARK   99  A    between atoms: _249  and  _250
REMARK  100  A    between atoms: _249  and  _252
REMARK  101  A    between atoms: _252  and  _253
REMARK  102  A    between atoms: _256  and  _258
REMARK  103  A    between atoms: _258  and  _259
REMARK  104  A    between atoms: _258  and  _261
REMARK  105  A    between atoms: _264  and  _266
REMARK  106  A    between atoms: _266  and  _267
REMARK  107  A    between atoms: _266  and  _269
REMARK  108  A    between atoms: _272  and  _274
REMARK  109  A    between atoms: _274  and  _275
REMARK  110  A    between atoms: _274  and  _277
REMARK  111  A    between atoms: _277  and  _278
REMARK  112  A    between atoms: _278  and  _279
REMARK  113  A    between atoms: _282  and  _284
REMARK  114  A    between atoms: _284  and  _285
REMARK  115  A    between atoms: _284  and  _287
REMARK  116  A    between atoms: _287  and  _288
REMARK  117  A    between atoms: _288  and  _289
REMARK  118  A    between atoms: _292  and  _294
REMARK  119  A    between atoms: _294  and  _295
REMARK  120  A    between atoms: _294  and  _297
REMARK  121  A    between atoms: _297  and  _298
REMARK  122  A    between atoms: _301  and  _303
REMARK  123  A    between atoms: _303  and  _304
REMARK  124  A    between atoms: _303  and  _306
REMARK  125  A    between atoms: _306  and  _307
REMARK  126  A    between atoms: _313  and  _315
REMARK  127  A    between atoms: _315  and  _316
REMARK  128  A    between atoms: _315  and  _318
REMARK  129  A    between atoms: _318  and  _319
REMARK  130  A    between atoms: _319  and  _320
REMARK  131  A    between atoms: _320  and  _321
REMARK  132  A    between atoms: _330  and  _332
REMARK  133  A    between atoms: _332  and  _333
REMARK  134  A    between atoms: _332  and  _335
REMARK  135  A    between atoms: _335  and  _336
REMARK  136  A    between atoms: _339  and  _341
REMARK  137  A    between atoms: _341  and  _342
REMARK  138  A    between atoms: _341  and  _344
REMARK  139  A    between atoms: _347  and  _349
REMARK  140  A    between atoms: _349  and  _350
REMARK  141  A    between atoms: _349  and  _352
REMARK  142  A    between atoms: _352  and  _353
REMARK  143  A    between atoms: _358  and  _360
REMARK  144  A    between atoms: _360  and  _361
REMARK  145  A    between atoms: _360  and  _363
REMARK  146  A    between atoms: _363  and  _364
REMARK  147  A    between atoms: _374  and  _376
REMARK  148  A    between atoms: _376  and  _377
REMARK  149  A    between atoms: _379  and  _381
REMARK  150  A    between atoms: _381  and  _382
REMARK  151  A    between atoms: _381  and  _384
REMARK  152  A    between atoms: _384  and  _385
REMARK  153  A    between atoms: _385  and  _386
REMARK  154  A    between atoms: _386  and  _387
REMARK  155  A    between atoms: _396  and  _398
REMARK  156  A    between atoms: _398  and  _399
REMARK  157  A    between atoms: _398  and  _401
REMARK  158  A    between atoms: _401  and  _402
REMARK  159  A    between atoms: _405  and  _407
REMARK  160  A    between atoms: _407  and  _408
REMARK  161  A    between atoms: _407  and  _410
REMARK  162  A    between atoms: _413  and  _415
REMARK  163  A    between atoms: _415  and  _416
REMARK  164  A    between atoms: _419  and  _421
REMARK  165  A    between atoms: _421  and  _422
REMARK  166  A    between atoms: _421  and  _424
REMARK  167  A    between atoms: _424  and  _425
REMARK  168  A    between atoms: _431  and  _433
REMARK  169  A    between atoms: _433  and  _434
REMARK  170  A    between atoms: _433  and  _436
REMARK  171  A    between atoms: _436  and  _437
REMARK  172  A    between atoms: _443  and  _445
REMARK  173  A    between atoms: _445  and  _446
REMARK  174  A    between atoms: _445  and  _448
REMARK  175  A    between atoms: _448  and  _449
REMARK  176  A    between atoms: _449  and  _450
REMARK  177  A    between atoms: _453  and  _455
REMARK  178  A    between atoms: _455  and  _456
REMARK  179  A    between atoms: _455  and  _458
REMARK  180  A    between atoms: _458  and  _459
REMARK  181  A    between atoms: _465  and  _467
REMARK  182  A    between atoms: _467  and  _468
REMARK  183  A    between atoms: _470  and  _472
REMARK  184  A    between atoms: _472  and  _473
REMARK  185  A    between atoms: _475  and  _477
REMARK  186  A    between atoms: _477  and  _478
REMARK  187  A    between atoms: _477  and  _480
REMARK  188  A    between atoms: _483  and  _485
REMARK  189  A    between atoms: _485  and  _486
REMARK  190  A    between atoms: _485  and  _488
REMARK  191  A    between atoms: _488  and  _489
REMARK  192  A    between atoms: _489  and  _490
REMARK  193  A    between atoms: _492  and  _494
REMARK  194  A    between atoms: _494  and  _495
REMARK  195  A    between atoms: _494  and  _497
REMARK  196  A    between atoms: _497  and  _498
REMARK  197  A    between atoms: _508  and  _510
REMARK  198  A    between atoms: _510  and  _511
REMARK  199  A    between atoms: _510  and  _513
REMARK  200  A    between atoms: _513  and  _514
REMARK  201  A    between atoms: _524  and  _526
REMARK  202  A    between atoms: _526  and  _527
REMARK  203  A    between atoms: _530  and  _532
REMARK  204  A    between atoms: _532  and  _533
REMARK  205  A    between atoms: _532  and  _535
REMARK  206  A    between atoms: _535  and  _536
REMARK  207  A    between atoms: _542  and  _544
REMARK  208  A    between atoms: _544  and  _545
REMARK  209  A    between atoms: _544  and  _547
REMARK  210  A    between atoms: _550  and  _552
REMARK  211  A    between atoms: _552  and  _553
REMARK  212  A    between atoms: _552  and  _555
REMARK  213  A    between atoms: _555  and  _556
REMARK  214  A    between atoms: _556  and  _557
REMARK  215  A    between atoms: _560  and  _562
REMARK  216  A    between atoms: _562  and  _563
REMARK  217  A    between atoms: _562  and  _565
REMARK  218  A    between atoms: _565  and  _566
REMARK  219  A    between atoms: _569  and  _571
REMARK  220  A    between atoms: _571  and  _572
REMARK  221  A    between atoms: _571  and  _574
REMARK  222  A    between atoms: _574  and  _575
REMARK  223  A    between atoms: _580  and  _581
REMARK  224  A    between atoms: _583  and  _585
REMARK  225  A    between atoms: _585  and  _586
REMARK  226  A    between atoms: _589  and  _590
REMARK                            x       y       z     vdW  Elec       q    Type
REMARK                         _______ _______ _______ _____ _____    ______ ____
ROOT
ATOM      1  NE  ARG A   1       7.288  14.661   1.268  0.00  0.00    -0.265 N 
ATOM      2  HE  ARG A   1       6.881  15.372   1.909  0.00  0.00    +0.259 HD
ATOM      3  CZ  ARG A   1       7.156  14.854  -0.038  0.00  0.00    +0.342 C 
ATOM      4  NH2 ARG A   1       6.519  15.929  -0.485  0.00  0.00    -0.292 N 
ATOM      5 HH21 ARG A   1       6.125  16.617   0.188  0.00  0.00    +0.255 HD
ATOM      6 HH22 ARG A   1       6.414  16.083  -1.508  0.00  0.00    +0.255 HD
ATOM      7  NH1 ARG A   1       7.704  13.997  -0.898  0.00  0.00    -0.292 N 
ATOM      8 HH11 ARG A   1       8.236  13.176  -0.546  0.00  0.00    +0.255 HD
ATOM      9 HH12 ARG A   1       7.600  14.149  -1.922  0.00  0.00    +0.255 HD
ENDROOT
BRANCH   1  10
ATOM     10  CD  ARG A   1       7.968  13.513   1.864  0.00  0.00    +0.174 C 
BRANCH  10  11
ATOM     11  CG  ARG A   1       6.996  12.588   2.606  0.00  0.00    +0.045 C 
BRANCH  11  12
ATOM     12  CB  ARG A   1       6.027  13.403   3.484  0.00  0.00    +0.029 C 
BRANCH  12  13
ATOM     13  CA  ARG A   1       4.681  13.679   2.798  0.00  0.00    +0.133 C 
BRANCH  13  14
ATOM     14  N   ARG A   1       3.764  14.366   3.719  0.00  0.00    -0.239 NA
ATOM     15  H   ARG A   1       4.049  14.547   4.703  0.00  0.00    +0.142 HD
ENDBRANCH  13  14
BRANCH  13  16
ATOM     16  C   ARG A   1       4.043  12.346   2.365  0.00  0.00    +0.224 C 
ATOM     17  O   ARG A   1       4.046  12.003   1.198  0.00  0.00    -0.287 OA
ENDBRANCH  13  16
ENDBRANCH  12  13
ENDBRANCH  11  12
ENDBRANCH  10  11
ENDBRANCH   1  10
TORSDOF 6
REMARK  Name = ../refined-set-2016/4lvt/4lvt_pocket.pdb
REMARK  226 active torsions:
REMARK  status: ('A' for Active; 'I' for Inactive)
REMARK    1  A    between atoms: _1  and  _3
REMARK    2  A    between atoms: _3  and  _4
REMARK    3  A    between atoms: _3  and  _6
REMARK    4  A    between atoms: _6  and  _7
REMARK    5  A    between atoms: _12  and  _13
REMARK    6  A    between atoms: _15  and  _17
REMARK    7  A    between atoms: _17  and  _18
REMARK    8  A    between atoms: _17  and  _20
REMARK    9  A    between atoms: _20  and  _21
REMARK   10  A    between atoms: _24  and  _26
REMARK   11  A    between atoms: _26  and  _27
REMARK   12  A    between atoms: _26  and  _29
REMARK   13  A    between atoms: _29  and  _30
REMARK   14  A    between atoms: _33  and  _35
REMARK   15  A    between atoms: _35  and  _36
REMARK   16  A    between atoms: _35  and  _38
REMARK   17  A    between atoms: _38  and  _39
REMARK   18  A    between atoms: _39  and  _40
REMARK   19  A    between atoms: _45  and  _47
REMARK   20  A    between atoms: _47  and  _48
REMARK   21  A    between atoms: _51  and  _53
REMARK   22  A    between atoms: _53  and  _54
REMARK   23  A    between atoms: _56  and  _58
REMARK   24  A    between atoms: _58  and  _59
REMARK   25  A    between atoms: _58  and  _61
REMARK   26  A    between atoms: _61  and  _62
REMARK   27  A    between atoms: _65  and  _67
REMARK   28  A    between atoms: _67  and  _68
REMARK   29  A    between atoms: _67  and  _70
REMARK   30  A    between atoms: _70  and  _71
REMARK   31  A    between atoms: _74  and  _76
REMARK   32  A    between atoms: _76  and  _77
REMARK   33  A    between atoms: _76  and  _79
REMARK   34  A    between atoms: _79  and  _80
REMARK   35  A    between atoms: _86  and  _88
REMARK   36  A    between atoms: _88  and  _89
REMARK   37  A    between atoms: _88  and  _91
REMARK   38  A    between atoms: _91  and  _92
REMARK   39  A    between atoms: _94  and  _96
REMARK   40  A    between atoms: _96  and  _97
REMARK   41  A    between atoms: _96  and  _99
REMARK   42  A    between atoms: _99  and  _100
REMARK   43  A    between atoms: _100  and  _101
REMARK   44  A    between atoms: _101  and  _102
REMARK   45  A    between atoms: _111  and  _113
REMARK   46  A    between atoms: _113  and  _114
REMARK   47  A    between atoms: _113  and  _116
REMARK   48  A    between atoms: _116  and  _117
REMARK   49  A    between atoms: _117  and  _118
REMARK   50  A    between atoms: _118  and  _119
REMARK   51  A    between atoms: _128  and  _130
REMARK   52  A    between atoms: _130  and  _131
REMARK   53  A    between atoms: _130  and  _133
REMARK   54  A    between atoms: _133  and  _134
REMARK   55  A    between atoms: _139  and  _140
REMARK   56  A    between atoms: _142  and  _144
REMARK   57  A    between atoms: _144  and  _145
REMARK   58  A    between atoms: _144  and  _147
REMARK   59  A    between atoms: _147  and  _148
REMARK   60  A    between atoms: _148  and  _149
REMARK   61  A    between atoms: _149  and  _150
REMARK   62  A    between atoms: _159  and  _161
REMARK   63  A    between atoms: _161  and  _162
REMARK   64  A    between atoms: _161  and  _164
REMARK   65  A    between atoms: _164  and  _165
REMARK   66  A    between atoms: _165  and  _166
REMARK   67  A    between atoms: _166  and  _167
REMARK   68  A    between atoms: _176  and  _178
REMARK   69  A    between atoms: _178  and  _179
REMARK   70  A    between atoms: _178  and  _181
REMARK   71  A    between atoms: _181  and  _182
REMARK   72  A    between atoms: _185  and  _187
REMARK   73  A    between atoms: _187  and  _188
REMARK   74  A    between atoms: _187  and  _190
REMARK   75  A    between atoms: _190  and  _191
REMARK   76  A    between atoms: _197  and  _199
REMARK   77  A    between atoms: _199  and  _200
REMARK   78  A    between atoms: _203  and  _205
REMARK   79  A    between atoms: _205  and  _206
REMARK   80  A    between atoms: _205  and  _208
REMARK   81  A    between atoms: _208  and  _209
REMARK   82  A    between atoms: _209  and  _210
REMARK   83  A    between atoms: _213  and  _215
REMARK   84  A    between atoms: _215  and  _216
REMARK   85  A    between atoms: _215  and  _218
REMARK   86  A    between atoms: _218  and  _219
REMARK   87  A    between atoms: _219  and  _220
REMARK   88  A    between atoms: _222  and  _224
REMARK   89  A    between atoms: _224  and  _225
REMARK   90  A    between atoms: _224  and  _227
REMARK   91  A    between atoms: _227  and  _228
REMARK   92  A    between atoms: _230  and  _232
REMARK   93  A    between atoms: _232  and  _233
REMARK   94  A    between atoms: _232  and  _235
REMARK   95  A    between atoms: _235  and  _236
REMARK   96  A    between atoms: _236  and  _237
REMARK   97  A    between atoms: _237  and  _238
REMARK   98  A    between atoms: _247  and  _249
REMARK   99  A    between atoms: _249  and  _250
REMARK  100  A    between atoms: _249  and  _252
REMARK  101  A    between atoms: _252  and  _253
REMARK  102  A    between atoms: _256  and  _258
REMARK  103  A    between atoms: _258  and  _259
REMARK  104  A    between atoms: _258  and  _261
REMARK  105  A    between atoms: _264  and  _266
REMARK  106  A    between atoms: _266  and  _267
REMARK  107  A    between atoms: _266  and  _269
REMARK  108  A    between atoms: _272  and  _274
REMARK  109  A    between atoms: _274  and  _275
REMARK  110  A    between atoms: _274  and  _277
REMARK  111  A    between atoms: _277  and  _278
REMARK  112  A    between atoms: _278  and  _279
REMARK  113  A    between atoms: _282  and  _284
REMARK  114  A    between atoms: _284  and  _285
REMARK  115  A    between atoms: _284  and  _287
REMARK  116  A    between atoms: _287  and  _288
REMARK  117  A    between atoms: _288  and  _289
REMARK  118  A    between atoms: _292  and  _294
REMARK  119  A    between atoms: _294  and  _295
REMARK  120  A    between atoms: _294  and  _297
REMARK  121  A    between atoms: _297  and  _298
REMARK  122  A    between atoms: _301  and  _303
REMARK  123  A    between atoms: _303  and  _304
REMARK  124  A    between atoms: _303  and  _306
REMARK  125  A    between atoms: _306  and  _307
REMARK  126  A    between atoms: _313  and  _315
REMARK  127  A    between atoms: _315  and  _316
REMARK  128  A    between atoms: _315  and  _318
REMARK  129  A    between atoms: _318  and  _319
REMARK  130  A    between atoms: _319  and  _320
REMARK  131  A    between atoms: _320  and  _321
REMARK  132  A    between atoms: _330  and  _332
REMARK  133  A    between atoms: _332  and  _333
REMARK  134  A    between atoms: _332  and  _335
REMARK  135  A    between atoms: _335  and  _336
REMARK  136  A    between atoms: _339  and  _341
REMARK  137  A    between atoms: _341  and  _342
REMARK  138  A    between atoms: _341  and  _344
REMARK  139  A    between atoms: _347  and  _349
REMARK  140  A    between atoms: _349  and  _350
REMARK  141  A    between atoms: _349  and  _352
REMARK  142  A    between atoms: _352  and  _353
REMARK  143  A    between atoms: _358  and  _360
REMARK  144  A    between atoms: _360  and  _361
REMARK  145  A    between atoms: _360  and  _363
REMARK  146  A    between atoms: _363  and  _364
REMARK  147  A    between atoms: _374  and  _376
REMARK  148  A    between atoms: _376  and  _377
REMARK  149  A    between atoms: _379  and  _381
REMARK  150  A    between atoms: _381  and  _382
REMARK  151  A    between atoms: _381  and  _384
REMARK  152  A    between atoms: _384  and  _385
REMARK  153  A    between atoms: _385  and  _386
REMARK  154  A    between atoms: _386  and  _387
REMARK  155  A    between atoms: _396  and  _398
REMARK  156  A    between atoms: _398  and  _399
REMARK  157  A    between atoms: _398  and  _401
REMARK  158  A    between atoms: _401  and  _402
REMARK  159  A    between atoms: _405  and  _407
REMARK  160  A    between atoms: _407  and  _408
REMARK  161  A    between atoms: _407  and  _410
REMARK  162  A    between atoms: _413  and  _415
REMARK  163  A    between atoms: _415  and  _416
REMARK  164  A    between atoms: _419  and  _421
REMARK  165  A    between atoms: _421  and  _422
REMARK  166  A    between atoms: _421  and  _424
REMARK  167  A    between atoms: _424  and  _425
REMARK  168  A    between atoms: _431  and  _433
REMARK  169  A    between atoms: _433  and  _434
REMARK  170  A    between atoms: _433  and  _436
REMARK  171  A    between atoms: _436  and  _437
REMARK  172  A    between atoms: _443  and  _445
REMARK  173  A    between atoms: _445  and  _446
REMARK  174  A    between atoms: _445  and  _448
REMARK  175  A    between atoms: _448  and  _449
REMARK  176  A    between atoms: _449  and  _450
REMARK  177  A    between atoms: _453  and  _455
REMARK  178  A    between atoms: _455  and  _456
REMARK  179  A    between atoms: _455  and  _458
REMARK  180  A    between atoms: _458  and  _459
REMARK  181  A    between atoms: _465  and  _467
REMARK  182  A    between atoms: _467  and  _468
REMARK  183  A    between atoms: _470  and  _472
REMARK  184  A    between atoms: _472  and  _473
REMARK  185  A    between atoms: _475  and  _477
REMARK  186  A    between atoms: _477  and  _478
REMARK  187  A    between atoms: _477  and  _480
REMARK  188  A    between atoms: _483  and  _485
REMARK  189  A    between atoms: _485  and  _486
REMARK  190  A    between atoms: _485  and  _488
REMARK  191  A    between atoms: _488  and  _489
REMARK  192  A    between atoms: _489  and  _490
REMARK  193  A    between atoms: _492  and  _494
REMARK  194  A    between atoms: _494  and  _495
REMARK  195  A    between atoms: _494  and  _497
REMARK  196  A    between atoms: _497  and  _498
REMARK  197  A    between atoms: _508  and  _510
REMARK  198  A    between atoms: _510  and  _511
REMARK  199  A    between atoms: _510  and  _513
REMARK  200  A    between atoms: _513  and  _514
REMARK  201  A    between atoms: _524  and  _526
REMARK  202  A    between atoms: _526  and  _527
REMARK  203  A    between atoms: _530  and  _532
REMARK  204  A    between atoms: _532  and  _533
REMARK  205  A    between atoms: _532  and  _535
REMARK  206  A    between atoms: _535  and  _536
REMARK  207  A    between atoms: _542  and  _544
REMARK  208  A    between atoms: _544  and  _545
REMARK  209  A    between atoms: _544  and  _547
REMARK  210  A    between atoms: _550  and  _552
REMARK  211  A    between atoms: _552  and  _553
REMARK  212  A    between atoms: _552  and  _555
REMARK  213  A    between atoms: _555  and  _556
REMARK  214  A    between atoms: _556  and  _557
REMARK  215  A    between atoms: _560  and  _562
REMARK  216  A    between atoms: _562  and  _563
REMARK  217  A    between atoms: _562  and  _565
REMARK  218  A    between atoms: _565  and  _566
REMARK  219  A    between atoms: _569  and  _571
REMARK  220  A    between atoms: _571  and  _572
REMARK  221  A    between atoms: _571  and  _574
REMARK  222  A    between atoms: _574  and  _575
REMARK  223  A    between atoms: _580  and  _581
REMARK  224  A    between atoms: _583  and  _585
REMARK  225  A    between atoms: _585  and  _586
REMARK  226  A    between atoms: _589  and  _590
REMARK                            x       y       z     vdW  Elec       q    Type
REMARK                         _______ _______ _______ _____ _____    ______ ____
ROOT
ATOM      1  C   GLU A   5       1.869   9.003  -7.417  0.00  0.00    +0.241 C 
ATOM      2  N   LEU A   6       2.109   8.109  -6.469  0.00  0.00    -0.297 N 
ATOM      3  H   LEU A   6       2.085   8.405  -5.472  0.00  0.00    +0.150 HD
ATOM      4  O   GLU A   5       1.853   8.720  -8.623  0.00  0.00    -0.273 OA
ENDROOT
BRANCH   2   5
ATOM      5  CA  LEU A   6       2.405   6.726  -6.793  0.00  0.00    +0.149 C 
BRANCH   5   6
ATOM      6  C   LEU A   6       1.284   6.084  -7.584  0.00  0.00    +0.241 C 
ATOM      7  N   PHE A   7       0.045   6.319  -7.159  0.00  0.00    -0.297 N 
ATOM      8  H   PHE A   7      -0.102   6.962  -6.355  0.00  0.00    +0.150 HD
ATOM      9  O   LEU A   6       1.535   5.339  -8.522  0.00  0.00    -0.273 OA
BRANCH   7  10
ATOM     10  CA  PHE A   7      -1.113   5.696  -7.794  0.00  0.00    +0.153 C 
BRANCH  10  11
ATOM     11  C   PHE A   7      -1.880   6.547  -8.808  0.00  0.00    +0.241 C 
ATOM     12  N   ARG A   8      -1.300   7.682  -9.160  0.00  0.00    -0.297 N 
ATOM     13  H   ARG A   8      -0.363   7.915  -8.773  0.00  0.00    +0.150 HD
ATOM     14  O   PHE A   7      -2.943   6.146  -9.293  0.00  0.00    -0.273 OA
BRANCH  12  15
ATOM     15  CA  ARG A   8      -1.942   8.615 -10.078  0.00  0.00    +0.149 C 
BRANCH  15  16
ATOM     16  C   ARG A   8      -2.392   7.979 -11.387  0.00  0.00    +0.241 C 
ATOM     17  O   ARG A   8      -3.533   8.156 -11.795  0.00  0.00    -0.273 OA
ATOM     18  N   ASP A   9      -1.508   7.213 -12.012  0.00  0.00    -0.298 N 
ATOM     19  H   ASP A   9      -0.568   7.081 -11.586  0.00  0.00    +0.150 HD
BRANCH  18  20
ATOM     20  CA  ASP A   9      -1.808   6.549 -13.277  0.00  0.00    +0.148 C 
BRANCH  20  21
ATOM     21  C   ASP A   9      -2.393   5.161 -13.111  0.00  0.00    +0.227 C 
ATOM     22  O   ASP A   9      -2.181   4.306 -13.961  0.00  0.00    -0.286 OA
ENDBRANCH  20  21
BRANCH  20  23
ATOM     23  CB  ASP A   9      -0.538   6.465 -14.114  0.00  0.00    +0.142 C 
BRANCH  23  24
ATOM     24  CG  ASP A   9      -0.017   7.841 -14.487  0.00  0.00    +0.367 C 
ATOM     25  OD2 ASP A   9      -0.852   8.768 -14.549  0.00  0.00    -0.246 OA
ATOM     26  OD1 ASP A   9       1.206   7.999 -14.683  0.00  0.00    -0.246 OA
ENDBRANCH  23  24
ENDBRANCH  20  23
ENDBRANCH  18  20
ENDBRANCH  15  16
BRANCH  15  27
ATOM     27  CB  ARG A   8      -1.056   9.835 -10.330  0.00  0.00    +0.033 C 
BRANCH  27  28
ATOM     28  CG  ARG A   8      -1.804  11.026 -10.949  0.00  0.00    +0.045 C 
BRANCH  28  29
ATOM     29  CD  ARG A   8      -0.908  12.259 -11.035  0.00  0.00    +0.174 C 
BRANCH  29  30
ATOM     30  NE  ARG A   8      -0.857  12.971  -9.760  0.00  0.00    -0.265 N 
ATOM     31  HE  ARG A   8      -1.641  12.829  -9.092  0.00  0.00    +0.259 HD
ATOM     32  CZ  ARG A   8       0.126  13.788  -9.400  0.00  0.00    +0.342 C 
ATOM     33  NH2 ARG A   8       0.091  14.393  -8.220  0.00  0.00    -0.292 N 
ATOM     34 HH21 ARG A   8      -0.708  14.228  -7.574  0.00  0.00    +0.255 HD
ATOM     35 HH22 ARG A   8       0.862  15.032  -7.940  0.00  0.00    +0.255 HD
ATOM     36  NH1 ARG A   8       1.138  14.011 -10.227  0.00  0.00    -0.292 N 
ATOM     37 HH11 ARG A   8       1.908  14.651  -9.946  0.00  0.00    +0.255 HD
ATOM     38 HH12 ARG A   8       1.162  13.546 -11.157  0.00  0.00    +0.255 HD
ENDBRANCH  29  30
ENDBRANCH  28  29
ENDBRANCH  27  28
ENDBRANCH  15  27
ENDBRANCH  12  15
ENDBRANCH  10  11
BRANCH  10  39
ATOM     39  CB  PHE A   7      -2.072   5.151  -6.743  0.00  0.00    +0.055 C 
BRANCH  39  40
ATOM     40  CG  PHE A   7      -1.468   4.035  -5.919  0.00  0.00    -0.020 A 
ATOM     41  CD2 PHE A   7      -1.064   4.253  -4.600  0.00  0.00    -0.004 A 
ATOM     42  CE2 PHE A   7      -0.492   3.231  -3.853  0.00  0.00    -0.000 A 
ATOM     43  CZ  PHE A   7      -0.264   1.979  -4.444  0.00  0.00    -0.000 A 
ATOM     44  CE1 PHE A   7      -0.595   1.774  -5.778  0.00  0.00    -0.000 A 
ATOM     45  CD1 PHE A   7      -1.173   2.817  -6.513  0.00  0.00    -0.004 A 
ENDBRANCH  39  40
ENDBRANCH  10  39
ENDBRANCH   7  10
ENDBRANCH   5   6
BRANCH   5  46
ATOM     46  CB  LEU A   6       2.668   5.927  -5.496  0.00  0.00    +0.029 C 
BRANCH  46  47
ATOM     47  CG  LEU A   6       2.905   4.414  -5.628  0.00  0.00    +0.002 C 
ATOM     48  CD2 LEU A   6       3.268   3.839  -4.247  0.00  0.00    +0.000 C 
ATOM     49  CD1 LEU A   6       4.037   4.132  -6.625  0.00  0.00    +0.000 C 
ENDBRANCH  46  47
ENDBRANCH   5  46
ENDBRANCH   2   5
BRANCH   1  50
ATOM     50  CA  GLU A   5       1.628  10.429  -6.923  0.00  0.00    +0.149 C 
BRANCH  50  52
ATOM     51  C   GLU A   4      -0.476  10.113  -5.788  0.00  0.00    +0.241 C 
ATOM     52  N   GLU A   5       0.811  10.436  -5.723  0.00  0.00    -0.297 N 
ATOM     53  H   GLU A   5       1.235  10.695  -4.809  0.00  0.00    +0.150 HD
ATOM     54  O   GLU A   4      -1.005   9.770  -6.837  0.00  0.00    -0.273 OA
BRANCH  51  55
ATOM     55  CA  GLU A   4      -1.268  10.128  -4.483  0.00  0.00    +0.149 C 
BRANCH  55  57
ATOM     56  C   VAL A   3      -0.004   8.392  -3.373  0.00  0.00    +0.241 C 
ATOM     57  N   GLU A   4      -0.428   9.651  -3.395  0.00  0.00    -0.297 N 
ATOM     58  H   GLU A   4      -0.157  10.300  -2.629  0.00  0.00    +0.150 HD
ATOM     59  O   VAL A   3      -0.259   7.608  -4.273  0.00  0.00    -0.273 OA
BRANCH  56  60
ATOM     60  CA  VAL A   3       0.909   7.987  -2.210  0.00  0.00    +0.149 C 
BRANCH  60  62
ATOM     61  C   VAL A   2       2.782   9.428  -2.777  0.00  0.00    +0.241 C 
ATOM     62  N   VAL A   3       1.884   9.029  -1.878  0.00  0.00    -0.297 N 
ATOM     63  H   VAL A   3       1.875   9.461  -0.932  0.00  0.00    +0.150 HD
ATOM     64  O   VAL A   2       2.792   9.001  -3.928  0.00  0.00    -0.273 OA
BRANCH  61  65
ATOM     65  CA  VAL A   2       3.762  10.517  -2.336  0.00  0.00    +0.148 C 
BRANCH  65  67
ATOM     66  C   THR A   1       2.174  12.350  -2.232  0.00  0.00    +0.241 C 
ATOM     67  N   VAL A   2       3.055  11.574  -1.615  0.00  0.00    -0.297 N 
ATOM     68  H   VAL A   2       3.246  11.720  -0.603  0.00  0.00    +0.150 HD
ATOM     69  O   THR A   1       1.907  12.246  -3.416  0.00  0.00    -0.274 OA
BRANCH  66  70
ATOM     70  CA  THR A   1       1.546  13.440  -1.389  0.00  0.00    +0.172 C 
BRANCH  70  71
ATOM     71  N   THR A   1       1.047  12.956  -0.112  0.00  0.00    -0.236 NA
ATOM     72  H   THR A   1       1.461  13.329   0.766  0.00  0.00    +0.142 HD
ENDBRANCH  70  71
BRANCH  70  73
ATOM     73  CB  THR A   1       2.542  14.613  -1.217  0.00  0.00    +0.135 C 
ATOM     74  CG2 THR A   1       3.187  14.937  -2.570  0.00  0.00    +0.034 C 
BRANCH  73  75
ATOM     75  OG1 THR A   1       1.823  15.768  -0.773  0.00  0.00    -0.383 OA
ATOM     76  HG1 THR A   1       1.385  15.570   0.092  0.00  0.00    +0.210 HD
ENDBRANCH  73  75
ENDBRANCH  70  73
ENDBRANCH  66  70
ENDBRANCH  65  67
BRANCH  65  77
ATOM     77  CB  VAL A   2       4.895   9.949  -1.461  0.00  0.00    +0.027 C 
ATOM     78  CG2 VAL A   2       5.997  10.995  -1.324  0.00  0.00    +0.002 C 
ATOM     79  CG1 VAL A   2       5.405   8.624  -2.018  0.00  0.00    +0.002 C 
ENDBRANCH  65  77
ENDBRANCH  61  65
ENDBRANCH  60  62
BRANCH  60  80
ATOM     80  CB  VAL A   3       0.160   7.526  -0.968  0.00  0.00    +0.027 C 
ATOM     81  CG2 VAL A   3       1.152   6.864   0.029  0.00  0.00    +0.002 C 
ATOM     82  CG1 VAL A   3      -0.910   6.548  -1.339  0.00  0.00    +0.002 C 
ENDBRANCH  60  80
ENDBRANCH  56  60
ENDBRANCH  55  57
BRANCH  55  83
ATOM     83  CB  GLU A   4      -1.815  11.526  -4.191  0.00  0.00    +0.041 C 
BRANCH  83  84
ATOM     84  CG  GLU A   4      -2.847  12.010  -5.220  0.00  0.00    +0.116 C 
BRANCH  84  85
ATOM     85  CD  GLU A   4      -2.201  12.537  -6.488  0.00  0.00    +0.365 C 
ATOM     86  OE2 GLU A   4      -1.026  12.932  -6.429  0.00  0.00    -0.246 OA
ATOM     87  OE1 GLU A   4      -2.860  12.542  -7.553  0.00  0.00    -0.246 OA
ENDBRANCH  84  85
ENDBRANCH  83  84
ENDBRANCH  55  83
ENDBRANCH  51  55
ENDBRANCH  50  52
BRANCH  50  88
ATOM     88  CB  GLU A   5       2.977  11.104  -6.672  0.00  0.00    +0.041 C 
BRANCH  88  89
ATOM     89  CG  GLU A   5       2.891  12.609  -6.506  0.00  0.00    +0.116 C 
BRANCH  89  90
ATOM     90  CD  GLU A   5       4.198  13.226  -6.036  0.00  0.00    +0.365 C 
ATOM     91  OE2 GLU A   5       5.165  12.480  -5.759  0.00  0.00    -0.246 OA
ATOM     92  OE1 GLU A   5       4.245  14.467  -5.897  0.00  0.00    -0.246 OA
ENDBRANCH  89  90
ENDBRANCH  88  89
ENDBRANCH  50  88
ENDBRANCH   1  50
TORSDOF 38
REMARK  Name = ../refined-set-2016/4lvt/4lvt_pocket.pdb
REMARK  226 active torsions:
REMARK  status: ('A' for Active; 'I' for Inactive)
REMARK    1  A    between atoms: _1  and  _3
REMARK    2  A    between atoms: _3  and  _4
REMARK    3  A    between atoms: _3  and  _6
REMARK    4  A    between atoms: _6  and  _7
REMARK    5  A    between atoms: _12  and  _13
REMARK    6  A    between atoms: _15  and  _17
REMARK    7  A    between atoms: _17  and  _18
REMARK    8  A    between atoms: _17  and  _20
REMARK    9  A    between atoms: _20  and  _21
REMARK   10  A    between atoms: _24  and  _26
REMARK   11  A    between atoms: _26  and  _27
REMARK   12  A    between atoms: _26  and  _29
REMARK   13  A    between atoms: _29  and  _30
REMARK   14  A    between atoms: _33  and  _35
REMARK   15  A    between atoms: _35  and  _36
REMARK   16  A    between atoms: _35  and  _38
REMARK   17  A    between atoms: _38  and  _39
REMARK   18  A    between atoms: _39  and  _40
REMARK   19  A    between atoms: _45  and  _47
REMARK   20  A    between atoms: _47  and  _48
REMARK   21  A    between atoms: _51  and  _53
REMARK   22  A    between atoms: _53  and  _54
REMARK   23  A    between atoms: _56  and  _58
REMARK   24  A    between atoms: _58  and  _59
REMARK   25  A    between atoms: _58  and  _61
REMARK   26  A    between atoms: _61  and  _62
REMARK   27  A    between atoms: _65  and  _67
REMARK   28  A    between atoms: _67  and  _68
REMARK   29  A    between atoms: _67  and  _70
REMARK   30  A    between atoms: _70  and  _71
REMARK   31  A    between atoms: _74  and  _76
REMARK   32  A    between atoms: _76  and  _77
REMARK   33  A    between atoms: _76  and  _79
REMARK   34  A    between atoms: _79  and  _80
REMARK   35  A    between atoms: _86  and  _88
REMARK   36  A    between atoms: _88  and  _89
REMARK   37  A    between atoms: _88  and  _91
REMARK   38  A    between atoms: _91  and  _92
REMARK   39  A    between atoms: _94  and  _96
REMARK   40  A    between atoms: _96  and  _97
REMARK   41  A    between atoms: _96  and  _99
REMARK   42  A    between atoms: _99  and  _100
REMARK   43  A    between atoms: _100  and  _101
REMARK   44  A    between atoms: _101  and  _102
REMARK   45  A    between atoms: _111  and  _113
REMARK   46  A    between atoms: _113  and  _114
REMARK   47  A    between atoms: _113  and  _116
REMARK   48  A    between atoms: _116  and  _117
REMARK   49  A    between atoms: _117  and  _118
REMARK   50  A    between atoms: _118  and  _119
REMARK   51  A    between atoms: _128  and  _130
REMARK   52  A    between atoms: _130  and  _131
REMARK   53  A    between atoms: _130  and  _133
REMARK   54  A    between atoms: _133  and  _134
REMARK   55  A    between atoms: _139  and  _140
REMARK   56  A    between atoms: _142  and  _144
REMARK   57  A    between atoms: _144  and  _145
REMARK   58  A    between atoms: _144  and  _147
REMARK   59  A    between atoms: _147  and  _148
REMARK   60  A    between atoms: _148  and  _149
REMARK   61  A    between atoms: _149  and  _150
REMARK   62  A    between atoms: _159  and  _161
REMARK   63  A    between atoms: _161  and  _162
REMARK   64  A    between atoms: _161  and  _164
REMARK   65  A    between atoms: _164  and  _165
REMARK   66  A    between atoms: _165  and  _166
REMARK   67  A    between atoms: _166  and  _167
REMARK   68  A    between atoms: _176  and  _178
REMARK   69  A    between atoms: _178  and  _179
REMARK   70  A    between atoms: _178  and  _181
REMARK   71  A    between atoms: _181  and  _182
REMARK   72  A    between atoms: _185  and  _187
REMARK   73  A    between atoms: _187  and  _188
REMARK   74  A    between atoms: _187  and  _190
REMARK   75  A    between atoms: _190  and  _191
REMARK   76  A    between atoms: _197  and  _199
REMARK   77  A    between atoms: _199  and  _200
REMARK   78  A    between atoms: _203  and  _205
REMARK   79  A    between atoms: _205  and  _206
REMARK   80  A    between atoms: _205  and  _208
REMARK   81  A    between atoms: _208  and  _209
REMARK   82  A    between atoms: _209  and  _210
REMARK   83  A    between atoms: _213  and  _215
REMARK   84  A    between atoms: _215  and  _216
REMARK   85  A    between atoms: _215  and  _218
REMARK   86  A    between atoms: _218  and  _219
REMARK   87  A    between atoms: _219  and  _220
REMARK   88  A    between atoms: _222  and  _224
REMARK   89  A    between atoms: _224  and  _225
REMARK   90  A    between atoms: _224  and  _227
REMARK   91  A    between atoms: _227  and  _228
REMARK   92  A    between atoms: _230  and  _232
REMARK   93  A    between atoms: _232  and  _233
REMARK   94  A    between atoms: _232  and  _235
REMARK   95  A    between atoms: _235  and  _236
REMARK   96  A    between atoms: _236  and  _237
REMARK   97  A    between atoms: _237  and  _238
REMARK   98  A    between atoms: _247  and  _249
REMARK   99  A    between atoms: _249  and  _250
REMARK  100  A    between atoms: _249  and  _252
REMARK  101  A    between atoms: _252  and  _253
REMARK  102  A    between atoms: _256  and  _258
REMARK  103  A    between atoms: _258  and  _259
REMARK  104  A    between atoms: _258  and  _261
REMARK  105  A    between atoms: _264  and  _266
REMARK  106  A    between atoms: _266  and  _267
REMARK  107  A    between atoms: _266  and  _269
REMARK  108  A    between atoms: _272  and  _274
REMARK  109  A    between atoms: _274  and  _275
REMARK  110  A    between atoms: _274  and  _277
REMARK  111  A    between atoms: _277  and  _278
REMARK  112  A    between atoms: _278  and  _279
REMARK  113  A    between atoms: _282  and  _284
REMARK  114  A    between atoms: _284  and  _285
REMARK  115  A    between atoms: _284  and  _287
REMARK  116  A    between atoms: _287  and  _288
REMARK  117  A    between atoms: _288  and  _289
REMARK  118  A    between atoms: _292  and  _294
REMARK  119  A    between atoms: _294  and  _295
REMARK  120  A    between atoms: _294  and  _297
REMARK  121  A    between atoms: _297  and  _298
REMARK  122  A    between atoms: _301  and  _303
REMARK  123  A    between atoms: _303  and  _304
REMARK  124  A    between atoms: _303  and  _306
REMARK  125  A    between atoms: _306  and  _307
REMARK  126  A    between atoms: _313  and  _315
REMARK  127  A    between atoms: _315  and  _316
REMARK  128  A    between atoms: _315  and  _318
REMARK  129  A    between atoms: _318  and  _319
REMARK  130  A    between atoms: _319  and  _320
REMARK  131  A    between atoms: _320  and  _321
REMARK  132  A    between atoms: _330  and  _332
REMARK  133  A    between atoms: _332  and  _333
REMARK  134  A    between atoms: _332  and  _335
REMARK  135  A    between atoms: _335  and  _336
REMARK  136  A    between atoms: _339  and  _341
REMARK  137  A    between atoms: _341  and  _342
REMARK  138  A    between atoms: _341  and  _344
REMARK  139  A    between atoms: _347  and  _349
REMARK  140  A    between atoms: _349  and  _350
REMARK  141  A    between atoms: _349  and  _352
REMARK  142  A    between atoms: _352  and  _353
REMARK  143  A    between atoms: _358  and  _360
REMARK  144  A    between atoms: _360  and  _361
REMARK  145  A    between atoms: _360  and  _363
REMARK  146  A    between atoms: _363  and  _364
REMARK  147  A    between atoms: _374  and  _376
REMARK  148  A    between atoms: _376  and  _377
REMARK  149  A    between atoms: _379  and  _381
REMARK  150  A    between atoms: _381  and  _382
REMARK  151  A    between atoms: _381  and  _384
REMARK  152  A    between atoms: _384  and  _385
REMARK  153  A    between atoms: _385  and  _386
REMARK  154  A    between atoms: _386  and  _387
REMARK  155  A    between atoms: _396  and  _398
REMARK  156  A    between atoms: _398  and  _399
REMARK  157  A    between atoms: _398  and  _401
REMARK  158  A    between atoms: _401  and  _402
REMARK  159  A    between atoms: _405  and  _407
REMARK  160  A    between atoms: _407  and  _408
REMARK  161  A    between atoms: _407  and  _410
REMARK  162  A    between atoms: _413  and  _415
REMARK  163  A    between atoms: _415  and  _416
REMARK  164  A    between atoms: _419  and  _421
REMARK  165  A    between atoms: _421  and  _422
REMARK  166  A    between atoms: _421  and  _424
REMARK  167  A    between atoms: _424  and  _425
REMARK  168  A    between atoms: _431  and  _433
REMARK  169  A    between atoms: _433  and  _434
REMARK  170  A    between atoms: _433  and  _436
REMARK  171  A    between atoms: _436  and  _437
REMARK  172  A    between atoms: _443  and  _445
REMARK  173  A    between atoms: _445  and  _446
REMARK  174  A    between atoms: _445  and  _448
REMARK  175  A    between atoms: _448  and  _449
REMARK  176  A    between atoms: _449  and  _450
REMARK  177  A    between atoms: _453  and  _455
REMARK  178  A    between atoms: _455  and  _456
REMARK  179  A    between atoms: _455  and  _458
REMARK  180  A    between atoms: _458  and  _459
REMARK  181  A    between atoms: _465  and  _467
REMARK  182  A    between atoms: _467  and  _468
REMARK  183  A    between atoms: _470  and  _472
REMARK  184  A    between atoms: _472  and  _473
REMARK  185  A    between atoms: _475  and  _477
REMARK  186  A    between atoms: _477  and  _478
REMARK  187  A    between atoms: _477  and  _480
REMARK  188  A    between atoms: _483  and  _485
REMARK  189  A    between atoms: _485  and  _486
REMARK  190  A    between atoms: _485  and  _488
REMARK  191  A    between atoms: _488  and  _489
REMARK  192  A    between atoms: _489  and  _490
REMARK  193  A    between atoms: _492  and  _494
REMARK  194  A    between atoms: _494  and  _495
REMARK  195  A    between atoms: _494  and  _497
REMARK  196  A    between atoms: _497  and  _498
REMARK  197  A    between atoms: _508  and  _510
REMARK  198  A    between atoms: _510  and  _511
REMARK  199  A    between atoms: _510  and  _513
REMARK  200  A    between atoms: _513  and  _514
REMARK  201  A    between atoms: _524  and  _526
REMARK  202  A    between atoms: _526  and  _527
REMARK  203  A    between atoms: _530  and  _532
REMARK  204  A    between atoms: _532  and  _533
REMARK  205  A    between atoms: _532  and  _535
REMARK  206  A    between atoms: _535  and  _536
REMARK  207  A    between atoms: _542  and  _544
REMARK  208  A    between atoms: _544  and  _545
REMARK  209  A    between atoms: _544  and  _547
REMARK  210  A    between atoms: _550  and  _552
REMARK  211  A    between atoms: _552  and  _553
REMARK  212  A    between atoms: _552  and  _555
REMARK  213  A    between atoms: _555  and  _556
REMARK  214  A    between atoms: _556  and  _557
REMARK  215  A    between atoms: _560  and  _562
REMARK  216  A    between atoms: _562  and  _563
REMARK  217  A    between atoms: _562  and  _565
REMARK  218  A    between atoms: _565  and  _566
REMARK  219  A    between atoms: _569  and  _571
REMARK  220  A    between atoms: _571  and  _572
REMARK  221  A    between atoms: _571  and  _574
REMARK  222  A    between atoms: _574  and  _575
REMARK  223  A    between atoms: _580  and  _581
REMARK  224  A    between atoms: _583  and  _585
REMARK  225  A    between atoms: _585  and  _586
REMARK  226  A    between atoms: _589  and  _590
REMARK                            x       y       z     vdW  Elec       q    Type
REMARK                         _______ _______ _______ _____ _____    ______ ____
ROOT
ATOM      1  CA  ALA A   8       6.345   0.217  -3.860  0.00  0.00    +0.149 C 
ATOM      2  CB  ALA A   8       6.279   1.041  -5.134  0.00  0.00    +0.031 C 
ENDROOT
BRANCH   1   3
ATOM      3  C   ALA A   8       5.741   0.992  -2.712  0.00  0.00    +0.241 C 
ATOM      4  O   ALA A   8       6.451   1.661  -1.972  0.00  0.00    -0.273 OA
ATOM      5  N   PHE A   9       4.416   0.896  -2.571  0.00  0.00    -0.297 N 
ATOM      6  H   PHE A   9       3.880   0.314  -3.246  0.00  0.00    +0.150 HD
BRANCH   5   7
ATOM      7  CA  PHE A   9       3.692   1.581  -1.500  0.00  0.00    +0.153 C 
BRANCH   7   8
ATOM      8  C   PHE A   9       4.170   1.011  -0.145  0.00  0.00    +0.241 C 
ATOM      9  O   PHE A   9       4.419   1.753   0.812  0.00  0.00    -0.273 OA
ATOM     10  N   PHE A  10       4.304  -0.307  -0.047  0.00  0.00    -0.297 N 
ATOM     11  H   PHE A  10       4.064  -0.918  -0.854  0.00  0.00    +0.150 HD
BRANCH  10  12
ATOM     12  CA  PHE A  10       4.794  -0.898   1.211  0.00  0.00    +0.153 C 
BRANCH  12  13
ATOM     13  C   PHE A  10       6.246  -0.495   1.503  0.00  0.00    +0.241 C 
ATOM     14  O   PHE A  10       6.589  -0.204   2.652  0.00  0.00    -0.273 OA
ATOM     15  N   GLU A  11       7.092  -0.503   0.471  0.00  0.00    -0.297 N 
ATOM     16  H   GLU A  11       6.742  -0.774  -0.470  0.00  0.00    +0.150 HD
BRANCH  15  17
ATOM     17  CA  GLU A  11       8.501  -0.139   0.632  0.00  0.00    +0.149 C 
BRANCH  17  18
ATOM     18  C   GLU A  11       8.632   1.341   1.006  0.00  0.00    +0.241 C 
ATOM     19  O   GLU A  11       9.527   1.728   1.752  0.00  0.00    -0.273 OA
ATOM     20  N   PHE A  12       7.738   2.167   0.491  0.00  0.00    -0.297 N 
ATOM     21  H   PHE A  12       7.025   1.808  -0.176  0.00  0.00    +0.150 HD
BRANCH  20  22
ATOM     22  CA  PHE A  12       7.747   3.594   0.857  0.00  0.00    +0.153 C 
BRANCH  22  23
ATOM     23  C   PHE A  12       7.363   3.756   2.347  0.00  0.00    +0.241 C 
ATOM     24  O   PHE A  12       7.964   4.541   3.070  0.00  0.00    -0.273 OA
ATOM     25  N   GLY A  13       6.362   3.014   2.807  0.00  0.00    -0.295 N 
ATOM     26  H   GLY A  13       5.846   2.386   2.158  0.00  0.00    +0.150 HD
BRANCH  25  27
ATOM     27  CA  GLY A  13       5.979   3.070   4.212  0.00  0.00    +0.176 C 
BRANCH  27  28
ATOM     28  C   GLY A  13       7.129   2.569   5.065  0.00  0.00    +0.243 C 
ATOM     29  O   GLY A  13       7.404   3.131   6.125  0.00  0.00    -0.273 OA
ATOM     30  N   GLY A  14       7.818   1.523   4.596  0.00  0.00    -0.295 N 
ATOM     31  H   GLY A  14       7.510   1.082   3.706  0.00  0.00    +0.150 HD
BRANCH  30  32
ATOM     32  CA  GLY A  14       8.981   0.977   5.280  0.00  0.00    +0.176 C 
BRANCH  32  33
ATOM     33  C   GLY A  14      10.125   2.005   5.347  0.00  0.00    +0.243 C 
ATOM     34  O   GLY A  14      10.804   2.115   6.356  0.00  0.00    -0.273 OA
ATOM     35  N   VAL A  15      10.346   2.744   4.265  0.00  0.00    -0.297 N 
ATOM     36  H   VAL A  15       9.768   2.582   3.415  0.00  0.00    +0.150 HD
BRANCH  35  37
ATOM     37  CA  VAL A  15      11.393   3.792   4.236  0.00  0.00    +0.149 C 
BRANCH  37  38
ATOM     38  C   VAL A  15      11.005   4.858   5.269  0.00  0.00    +0.241 C 
ATOM     39  O   VAL A  15      11.844   5.319   6.040  0.00  0.00    -0.273 OA
ATOM     40  N   MET A  16       9.727   5.235   5.297  0.00  0.00    -0.298 N 
ATOM     41  H   MET A  16       9.057   4.822   4.617  0.00  0.00    +0.150 HD
BRANCH  40  42
ATOM     42  CA  MET A  16       9.250   6.223   6.271  0.00  0.00    +0.138 C 
BRANCH  42  43
ATOM     43  C   MET A  16       9.449   5.729   7.722  0.00  0.00    +0.227 C 
ATOM     44  O   MET A  16       9.883   6.480   8.573  0.00  0.00    -0.286 OA
ENDBRANCH  42  43
BRANCH  42  45
ATOM     45  CB  MET A  16       7.781   6.611   6.016  0.00  0.00    +0.039 C 
BRANCH  45  46
ATOM     46  CG  MET A  16       7.591   7.563   4.830  0.00  0.00    +0.060 C 
BRANCH  46  47
ATOM     47  SD  MET A  16       6.015   8.434   4.922  0.00  0.00    -0.139 S 
ATOM     48  CE  MET A  16       6.390   9.711   6.159  0.00  0.00    +0.069 C 
ENDBRANCH  46  47
ENDBRANCH  45  46
ENDBRANCH  42  45
ENDBRANCH  40  42
ENDBRANCH  37  38
BRANCH  37  49
ATOM     49  CB  VAL A  15      11.514   4.443   2.825  0.00  0.00    +0.027 C 
ATOM     50  CG2 VAL A  15      12.296   5.773   2.896  0.00  0.00    +0.002 C 
ATOM     51  CG1 VAL A  15      12.210   3.502   1.841  0.00  0.00    +0.002 C 
ENDBRANCH  37  49
ENDBRANCH  35  37
ENDBRANCH  32  33
ENDBRANCH  30  32
ENDBRANCH  27  28
ENDBRANCH  25  27
ENDBRANCH  22  23
BRANCH  22  52
ATOM     52  CB  PHE A  12       6.780   4.387  -0.022  0.00  0.00    +0.055 C 
BRANCH  52  53
ATOM     53  CG  PHE A  12       6.503   5.754   0.492  0.00  0.00    -0.020 A 
ATOM     54  CD2 PHE A  12       5.242   6.089   0.982  0.00  0.00    -0.004 A 
ATOM     55  CE2 PHE A  12       5.018   7.339   1.492  0.00  0.00    -0.000 A 
ATOM     56  CZ  PHE A  12       6.050   8.272   1.536  0.00  0.00    -0.000 A 
ATOM     57  CE1 PHE A  12       7.280   7.963   1.029  0.00  0.00    -0.000 A 
ATOM     58  CD1 PHE A  12       7.516   6.700   0.531  0.00  0.00    -0.004 A 
ENDBRANCH  52  53
ENDBRANCH  22  52
ENDBRANCH  20  22
ENDBRANCH  17  18
BRANCH  17  59
ATOM     59  CB  GLU A  11       9.347  -0.476  -0.622  0.00  0.00    +0.041 C 
BRANCH  59  60
ATOM     60  CG  GLU A  11       9.605  -1.986  -0.791  0.00  0.00    +0.116 C 
BRANCH  60  61
ATOM     61  CD  GLU A  11      10.486  -2.535   0.324  0.00  0.00    +0.365 C 
ATOM     62  OE2 GLU A  11      10.107  -3.543   0.951  0.00  0.00    -0.246 OA
ATOM     63  OE1 GLU A  11      11.520  -1.905   0.614  0.00  0.00    -0.246 OA
ENDBRANCH  60  61
ENDBRANCH  59  60
ENDBRANCH  17  59
ENDBRANCH  15  17
ENDBRANCH  12  13
BRANCH  12  64
ATOM     64  CB  PHE A  10       4.657  -2.438   1.217  0.00  0.00    +0.055 C 
BRANCH  64  65
ATOM     65  CG  PHE A  10       3.293  -2.919   1.638  0.00  0.00    -0.020 A 
ATOM     66  CD2 PHE A  10       3.025  -3.189   2.987  0.00  0.00    -0.004 A 
ATOM     67  CE2 PHE A  10       1.779  -3.651   3.364  0.00  0.00    -0.000 A 
ATOM     68  CZ  PHE A  10       0.777  -3.814   2.424  0.00  0.00    -0.000 A 
ATOM     69  CE1 PHE A  10       1.022  -3.552   1.073  0.00  0.00    -0.000 A 
ATOM     70  CD1 PHE A  10       2.272  -3.086   0.696  0.00  0.00    -0.004 A 
ENDBRANCH  64  65
ENDBRANCH  12  64
ENDBRANCH  10  12
ENDBRANCH   7   8
BRANCH   7  71
ATOM     71  CB  PHE A   9       2.175   1.331  -1.711  0.00  0.00    +0.055 C 
BRANCH  71  72
ATOM     72  CG  PHE A   9       1.327   1.560  -0.476  0.00  0.00    -0.020 A 
ATOM     73  CD2 PHE A   9       0.922   0.485   0.304  0.00  0.00    -0.004 A 
ATOM     74  CE2 PHE A   9       0.118   0.662   1.390  0.00  0.00    -0.000 A 
ATOM     75  CZ  PHE A   9      -0.354   1.932   1.706  0.00  0.00    -0.000 A 
ATOM     76  CE1 PHE A   9       0.053   3.035   0.963  0.00  0.00    -0.000 A 
ATOM     77  CD1 PHE A   9       0.873   2.842  -0.143  0.00  0.00    -0.004 A 
ENDBRANCH  71  72
ENDBRANCH   7  71
ENDBRANCH   5   7
ENDBRANCH   1   3
BRANCH   1  80
ATOM     78  C   VAL A   7       5.600  -1.973  -3.060  0.00  0.00    +0.241 C 
ATOM     79  O   VAL A   7       6.142  -1.800  -1.970  0.00  0.00    -0.273 OA
ATOM     80  N   ALA A   8       5.637  -1.067  -4.025  0.00  0.00    -0.297 N 
ATOM     81  H   ALA A   8       5.154  -1.266  -4.924  0.00  0.00    +0.150 HD
BRANCH  78  82
ATOM     82  CA  VAL A   7       4.822  -3.264  -3.370  0.00  0.00    +0.149 C 
BRANCH  82  85
ATOM     83  C   ILE A   6       2.675  -2.185  -3.479  0.00  0.00    +0.241 C 
ATOM     84  O   ILE A   6       2.858  -1.763  -2.340  0.00  0.00    -0.273 OA
ATOM     85  N   VAL A   7       3.586  -2.940  -4.081  0.00  0.00    -0.297 N 
ATOM     86  H   VAL A   7       3.423  -3.296  -5.044  0.00  0.00    +0.150 HD
BRANCH  83  87
ATOM     87  CA  ILE A   6       1.426  -1.804  -4.298  0.00  0.00    +0.149 C 
BRANCH  87  90
ATOM     88  C   ARG A   5       2.592  -0.331  -5.827  0.00  0.00    +0.241 C 
ATOM     89  O   ARG A   5       2.891   0.425  -4.919  0.00  0.00    -0.273 OA
ATOM     90  N   ILE A   6       1.861  -1.429  -5.647  0.00  0.00    -0.297 N 
ATOM     91  H   ILE A   6       1.599  -2.020  -6.462  0.00  0.00    +0.150 HD
BRANCH  88  92
ATOM     92  CA  ARG A   5       3.077  -0.057  -7.226  0.00  0.00    +0.149 C 
BRANCH  92  95
ATOM     93  C   GLY A   4       4.311  -2.113  -7.644  0.00  0.00    +0.243 C 
ATOM     94  O   GLY A   4       5.111  -1.842  -6.771  0.00  0.00    -0.273 OA
ATOM     95  N   ARG A   5       3.293  -1.319  -7.934  0.00  0.00    -0.297 N 
ATOM     96  H   ARG A   5       2.630  -1.599  -8.684  0.00  0.00    +0.150 HD
BRANCH  93  97
ATOM     97  CA  GLY A   4       4.407  -3.427  -8.408  0.00  0.00    +0.176 C 
BRANCH  97 100
ATOM     98  C   TRP A   3       2.352  -4.408  -7.654  0.00  0.00    +0.241 C 
ATOM     99  O   TRP A   3       2.744  -4.335  -6.500  0.00  0.00    -0.273 OA
ATOM    100  N   GLY A   4       3.095  -4.001  -8.672  0.00  0.00    -0.295 N 
ATOM    101  H   GLY A   4       2.746  -4.090  -9.648  0.00  0.00    +0.150 HD
BRANCH  98 102
ATOM    102  CA  TRP A   3       0.984  -4.998  -7.971  0.00  0.00    +0.153 C 
BRANCH 102 105
ATOM    103  C   ASN A   2       0.058  -3.084  -9.132  0.00  0.00    +0.241 C 
ATOM    104  O   ASN A   2       0.244  -2.379  -8.143  0.00  0.00    -0.273 OA
ATOM    105  N   TRP A   3       0.357  -4.375  -9.142  0.00  0.00    -0.297 N 
ATOM    106  H   TRP A   3       0.146  -4.949  -9.983  0.00  0.00    +0.150 HD
BRANCH 103 107
ATOM    107  CA  ASN A   2      -0.683  -2.509 -10.340  0.00  0.00    +0.158 C 
BRANCH 107 109
ATOM    108  C   VAL A   1      -2.268  -0.626 -10.405  0.00  0.00    +0.238 C 
ATOM    109  N   ASN A   2      -1.175  -1.199  -9.912  0.00  0.00    -0.297 N 
ATOM    110  H   ASN A   2      -0.640  -0.688  -9.181  0.00  0.00    +0.150 HD
ATOM    111  O   VAL A   1      -2.885  -1.078 -11.373  0.00  0.00    -0.274 OA
BRANCH 108 112
ATOM    112  CA  VAL A   1      -2.789   0.595  -9.650  0.00  0.00    +0.145 C 
BRANCH 112 113
ATOM    113  CB  VAL A   1      -3.857   0.134  -8.577  0.00  0.00    +0.025 C 
ATOM    114  CG2 VAL A   1      -3.231  -0.784  -7.542  0.00  0.00    +0.002 C 
ATOM    115  CG1 VAL A   1      -4.511   1.358  -7.896  0.00  0.00    +0.002 C 
ENDBRANCH 112 113
BRANCH 112 116
ATOM    116  N   VAL A   1      -3.411   1.556 -10.543  0.00  0.00    -0.238 NA
ATOM    117  H   VAL A   1      -4.338   1.330 -10.957  0.00  0.00    +0.142 HD
ENDBRANCH 112 116
ENDBRANCH 108 112
ENDBRANCH 107 109
BRANCH 107 118
ATOM    118  CB  ASN A   2       0.143  -2.480 -11.640  0.00  0.00    +0.114 C 
BRANCH 118 119
ATOM    119  CG  ASN A   2       1.418  -1.672 -11.508  0.00  0.00    +0.222 C 
ATOM    120  OD1 ASN A   2       2.072  -1.710 -10.481  0.00  0.00    -0.275 OA
ATOM    121  ND2 ASN A   2       1.820  -1.007 -12.583  0.00  0.00    -0.329 N 
ATOM    122 HD21 ASN A   2       2.724  -0.493 -12.569  0.00  0.00    +0.145 HD
ATOM    123 HD22 ASN A   2       1.231  -1.000 -13.440  0.00  0.00    +0.145 HD
ENDBRANCH 118 119
ENDBRANCH 107 118
ENDBRANCH 103 107
ENDBRANCH 102 105
BRANCH 102 124
ATOM    124  CB  TRP A   3       1.092  -6.516  -8.158  0.00  0.00    +0.057 C 
BRANCH 124 125
ATOM    125  CG  TRP A   3      -0.235  -7.259  -7.985  0.00  0.00    -0.002 A 
ATOM    126  CD2 TRP A   3      -1.003  -7.384  -6.772  0.00  0.00    +0.013 A 
ATOM    127  CE3 TRP A   3      -0.841  -6.903  -5.467  0.00  0.00    +0.001 A 
ATOM    128  CZ3 TRP A   3      -1.790  -7.249  -4.508  0.00  0.00    +0.000 A 
ATOM    129  CH2 TRP A   3      -2.872  -8.085  -4.827  0.00  0.00    +0.001 A 
ATOM    130  CZ2 TRP A   3      -3.085  -8.535  -6.107  0.00  0.00    +0.017 A 
ATOM    131  CE2 TRP A   3      -2.135  -8.200  -7.069  0.00  0.00    +0.056 A 
ATOM    132  NE1 TRP A   3      -2.063  -8.545  -8.394  0.00  0.00    -0.352 N 
ATOM    133  HE1 TRP A   3      -2.739  -9.154  -8.897  0.00  0.00    +0.166 HD
ATOM    134  CD1 TRP A   3      -0.939  -7.948  -8.957  0.00  0.00    +0.068 A 
ENDBRANCH 124 125
ENDBRANCH 102 124
ENDBRANCH  98 102
ENDBRANCH  97 100
ENDBRANCH  93  97
ENDBRANCH  92  95
BRANCH  92 135
ATOM    135  CB  ARG A   5       2.067   0.820  -7.964  0.00  0.00    +0.033 C 
BRANCH 135 136
ATOM    136  CG  ARG A   5       2.639   1.399  -9.242  0.00  0.00    +0.045 C 
BRANCH 136 137
ATOM    137  CD  ARG A   5       1.597   2.076 -10.087  0.00  0.00    +0.174 C 
BRANCH 137 138
ATOM    138  NE  ARG A   5       2.220   2.648 -11.290  0.00  0.00    -0.265 N 
ATOM    139  HE  ARG A   5       3.238   2.858 -11.262  0.00  0.00    +0.259 HD
ATOM    140  CZ  ARG A   5       1.556   2.912 -12.413  0.00  0.00    +0.342 C 
ATOM    141  NH2 ARG A   5       0.251   2.694 -12.483  0.00  0.00    -0.292 N 
ATOM    142 HH21 ARG A   5      -0.258   2.315 -11.659  0.00  0.00    +0.255 HD
ATOM    143 HH22 ARG A   5      -0.264   2.901 -13.362  0.00  0.00    +0.255 HD
ATOM    144  NH1 ARG A   5       2.192   3.401 -13.463  0.00  0.00    -0.292 N 
ATOM    145 HH11 ARG A   5       3.215   3.581 -13.414  0.00  0.00    +0.255 HD
ATOM    146 HH12 ARG A   5       1.669   3.606 -14.339  0.00  0.00    +0.255 HD
ENDBRANCH 137 138
ENDBRANCH 136 137
ENDBRANCH 135 136
ENDBRANCH  92 135
ENDBRANCH  88  92
ENDBRANCH  87  90
BRANCH  87 147
ATOM    147  CB  ILE A   6       0.355  -2.906  -4.345  0.00  0.00    +0.027 C 
ATOM    148  CG2 ILE A   6       0.223  -3.585  -2.930  0.00  0.00    +0.002 C 
BRANCH 147 149
ATOM    149  CG1 ILE A   6      -0.988  -2.268  -4.736  0.00  0.00    +0.002 C 
ATOM    150  CD1 ILE A   6      -2.103  -3.262  -5.023  0.00  0.00    +0.000 C 
ENDBRANCH 147 149
ENDBRANCH  87 147
ENDBRANCH  83  87
ENDBRANCH  82  85
BRANCH  82 151
ATOM    151  CB  VAL A   7       5.688  -4.235  -4.200  0.00  0.00    +0.027 C 
ATOM    152  CG2 VAL A   7       7.056  -4.434  -3.513  0.00  0.00    +0.002 C 
ATOM    153  CG1 VAL A   7       4.953  -5.563  -4.369  0.00  0.00    +0.002 C 
ENDBRANCH  82 151
ENDBRANCH  78  82
ENDBRANCH   1  80
TORSDOF 57
REMARK  Name = ../refined-set-2016/4lvt/4lvt_pocket.pdb
REMARK  226 active torsions:
REMARK  status: ('A' for Active; 'I' for Inactive)
REMARK    1  A    between atoms: _1  and  _3
REMARK    2  A    between atoms: _3  and  _4
REMARK    3  A    between atoms: _3  and  _6
REMARK    4  A    between atoms: _6  and  _7
REMARK    5  A    between atoms: _12  and  _13
REMARK    6  A    between atoms: _15  and  _17
REMARK    7  A    between atoms: _17  and  _18
REMARK    8  A    between atoms: _17  and  _20
REMARK    9  A    between atoms: _20  and  _21
REMARK   10  A    between atoms: _24  and  _26
REMARK   11  A    between atoms: _26  and  _27
REMARK   12  A    between atoms: _26  and  _29
REMARK   13  A    between atoms: _29  and  _30
REMARK   14  A    between atoms: _33  and  _35
REMARK   15  A    between atoms: _35  and  _36
REMARK   16  A    between atoms: _35  and  _38
REMARK   17  A    between atoms: _38  and  _39
REMARK   18  A    between atoms: _39  and  _40
REMARK   19  A    between atoms: _45  and  _47
REMARK   20  A    between atoms: _47  and  _48
REMARK   21  A    between atoms: _51  and  _53
REMARK   22  A    between atoms: _53  and  _54
REMARK   23  A    between atoms: _56  and  _58
REMARK   24  A    between atoms: _58  and  _59
REMARK   25  A    between atoms: _58  and  _61
REMARK   26  A    between atoms: _61  and  _62
REMARK   27  A    between atoms: _65  and  _67
REMARK   28  A    between atoms: _67  and  _68
REMARK   29  A    between atoms: _67  and  _70
REMARK   30  A    between atoms: _70  and  _71
REMARK   31  A    between atoms: _74  and  _76
REMARK   32  A    between atoms: _76  and  _77
REMARK   33  A    between atoms: _76  and  _79
REMARK   34  A    between atoms: _79  and  _80
REMARK   35  A    between atoms: _86  and  _88
REMARK   36  A    between atoms: _88  and  _89
REMARK   37  A    between atoms: _88  and  _91
REMARK   38  A    between atoms: _91  and  _92
REMARK   39  A    between atoms: _94  and  _96
REMARK   40  A    between atoms: _96  and  _97
REMARK   41  A    between atoms: _96  and  _99
REMARK   42  A    between atoms: _99  and  _100
REMARK   43  A    between atoms: _100  and  _101
REMARK   44  A    between atoms: _101  and  _102
REMARK   45  A    between atoms: _111  and  _113
REMARK   46  A    between atoms: _113  and  _114
REMARK   47  A    between atoms: _113  and  _116
REMARK   48  A    between atoms: _116  and  _117
REMARK   49  A    between atoms: _117  and  _118
REMARK   50  A    between atoms: _118  and  _119
REMARK   51  A    between atoms: _128  and  _130
REMARK   52  A    between atoms: _130  and  _131
REMARK   53  A    between atoms: _130  and  _133
REMARK   54  A    between atoms: _133  and  _134
REMARK   55  A    between atoms: _139  and  _140
REMARK   56  A    between atoms: _142  and  _144
REMARK   57  A    between atoms: _144  and  _145
REMARK   58  A    between atoms: _144  and  _147
REMARK   59  A    between atoms: _147  and  _148
REMARK   60  A    between atoms: _148  and  _149
REMARK   61  A    between atoms: _149  and  _150
REMARK   62  A    between atoms: _159  and  _161
REMARK   63  A    between atoms: _161  and  _162
REMARK   64  A    between atoms: _161  and  _164
REMARK   65  A    between atoms: _164  and  _165
REMARK   66  A    between atoms: _165  and  _166
REMARK   67  A    between atoms: _166  and  _167
REMARK   68  A    between atoms: _176  and  _178
REMARK   69  A    between atoms: _178  and  _179
REMARK   70  A    between atoms: _178  and  _181
REMARK   71  A    between atoms: _181  and  _182
REMARK   72  A    between atoms: _185  and  _187
REMARK   73  A    between atoms: _187  and  _188
REMARK   74  A    between atoms: _187  and  _190
REMARK   75  A    between atoms: _190  and  _191
REMARK   76  A    between atoms: _197  and  _199
REMARK   77  A    between atoms: _199  and  _200
REMARK   78  A    between atoms: _203  and  _205
REMARK   79  A    between atoms: _205  and  _206
REMARK   80  A    between atoms: _205  and  _208
REMARK   81  A    between atoms: _208  and  _209
REMARK   82  A    between atoms: _209  and  _210
REMARK   83  A    between atoms: _213  and  _215
REMARK   84  A    between atoms: _215  and  _216
REMARK   85  A    between atoms: _215  and  _218
REMARK   86  A    between atoms: _218  and  _219
REMARK   87  A    between atoms: _219  and  _220
REMARK   88  A    between atoms: _222  and  _224
REMARK   89  A    between atoms: _224  and  _225
REMARK   90  A    between atoms: _224  and  _227
REMARK   91  A    between atoms: _227  and  _228
REMARK   92  A    between atoms: _230  and  _232
REMARK   93  A    between atoms: _232  and  _233
REMARK   94  A    between atoms: _232  and  _235
REMARK   95  A    between atoms: _235  and  _236
REMARK   96  A    between atoms: _236  and  _237
REMARK   97  A    between atoms: _237  and  _238
REMARK   98  A    between atoms: _247  and  _249
REMARK   99  A    between atoms: _249  and  _250
REMARK  100  A    between atoms: _249  and  _252
REMARK  101  A    between atoms: _252  and  _253
REMARK  102  A    between atoms: _256  and  _258
REMARK  103  A    between atoms: _258  and  _259
REMARK  104  A    between atoms: _258  and  _261
REMARK  105  A    between atoms: _264  and  _266
REMARK  106  A    between atoms: _266  and  _267
REMARK  107  A    between atoms: _266  and  _269
REMARK  108  A    between atoms: _272  and  _274
REMARK  109  A    between atoms: _274  and  _275
REMARK  110  A    between atoms: _274  and  _277
REMARK  111  A    between atoms: _277  and  _278
REMARK  112  A    between atoms: _278  and  _279
REMARK  113  A    between atoms: _282  and  _284
REMARK  114  A    between atoms: _284  and  _285
REMARK  115  A    between atoms: _284  and  _287
REMARK  116  A    between atoms: _287  and  _288
REMARK  117  A    between atoms: _288  and  _289
REMARK  118  A    between atoms: _292  and  _294
REMARK  119  A    between atoms: _294  and  _295
REMARK  120  A    between atoms: _294  and  _297
REMARK  121  A    between atoms: _297  and  _298
REMARK  122  A    between atoms: _301  and  _303
REMARK  123  A    between atoms: _303  and  _304
REMARK  124  A    between atoms: _303  and  _306
REMARK  125  A    between atoms: _306  and  _307
REMARK  126  A    between atoms: _313  and  _315
REMARK  127  A    between atoms: _315  and  _316
REMARK  128  A    between atoms: _315  and  _318
REMARK  129  A    between atoms: _318  and  _319
REMARK  130  A    between atoms: _319  and  _320
REMARK  131  A    between atoms: _320  and  _321
REMARK  132  A    between atoms: _330  and  _332
REMARK  133  A    between atoms: _332  and  _333
REMARK  134  A    between atoms: _332  and  _335
REMARK  135  A    between atoms: _335  and  _336
REMARK  136  A    between atoms: _339  and  _341
REMARK  137  A    between atoms: _341  and  _342
REMARK  138  A    between atoms: _341  and  _344
REMARK  139  A    between atoms: _347  and  _349
REMARK  140  A    between atoms: _349  and  _350
REMARK  141  A    between atoms: _349  and  _352
REMARK  142  A    between atoms: _352  and  _353
REMARK  143  A    between atoms: _358  and  _360
REMARK  144  A    between atoms: _360  and  _361
REMARK  145  A    between atoms: _360  and  _363
REMARK  146  A    between atoms: _363  and  _364
REMARK  147  A    between atoms: _374  and  _376
REMARK  148  A    between atoms: _376  and  _377
REMARK  149  A    between atoms: _379  and  _381
REMARK  150  A    between atoms: _381  and  _382
REMARK  151  A    between atoms: _381  and  _384
REMARK  152  A    between atoms: _384  and  _385
REMARK  153  A    between atoms: _385  and  _386
REMARK  154  A    between atoms: _386  and  _387
REMARK  155  A    between atoms: _396  and  _398
REMARK  156  A    between atoms: _398  and  _399
REMARK  157  A    between atoms: _398  and  _401
REMARK  158  A    between atoms: _401  and  _402
REMARK  159  A    between atoms: _405  and  _407
REMARK  160  A    between atoms: _407  and  _408
REMARK  161  A    between atoms: _407  and  _410
REMARK  162  A    between atoms: _413  and  _415
REMARK  163  A    between atoms: _415  and  _416
REMARK  164  A    between atoms: _419  and  _421
REMARK  165  A    between atoms: _421  and  _422
REMARK  166  A    between atoms: _421  and  _424
REMARK  167  A    between atoms: _424  and  _425
REMARK  168  A    between atoms: _431  and  _433
REMARK  169  A    between atoms: _433  and  _434
REMARK  170  A    between atoms: _433  and  _436
REMARK  171  A    between atoms: _436  and  _437
REMARK  172  A    between atoms: _443  and  _445
REMARK  173  A    between atoms: _445  and  _446
REMARK  174  A    between atoms: _445  and  _448
REMARK  175  A    between atoms: _448  and  _449
REMARK  176  A    between atoms: _449  and  _450
REMARK  177  A    between atoms: _453  and  _455
REMARK  178  A    between atoms: _455  and  _456
REMARK  179  A    between atoms: _455  and  _458
REMARK  180  A    between atoms: _458  and  _459
REMARK  181  A    between atoms: _465  and  _467
REMARK  182  A    between atoms: _467  and  _468
REMARK  183  A    between atoms: _470  and  _472
REMARK  184  A    between atoms: _472  and  _473
REMARK  185  A    between atoms: _475  and  _477
REMARK  186  A    between atoms: _477  and  _478
REMARK  187  A    between atoms: _477  and  _480
REMARK  188  A    between atoms: _483  and  _485
REMARK  189  A    between atoms: _485  and  _486
REMARK  190  A    between atoms: _485  and  _488
REMARK  191  A    between atoms: _488  and  _489
REMARK  192  A    between atoms: _489  and  _490
REMARK  193  A    between atoms: _492  and  _494
REMARK  194  A    between atoms: _494  and  _495
REMARK  195  A    between atoms: _494  and  _497
REMARK  196  A    between atoms: _497  and  _498
REMARK  197  A    between atoms: _508  and  _510
REMARK  198  A    between atoms: _510  and  _511
REMARK  199  A    between atoms: _510  and  _513
REMARK  200  A    between atoms: _513  and  _514
REMARK  201  A    between atoms: _524  and  _526
REMARK  202  A    between atoms: _526  and  _527
REMARK  203  A    between atoms: _530  and  _532
REMARK  204  A    between atoms: _532  and  _533
REMARK  205  A    between atoms: _532  and  _535
REMARK  206  A    between atoms: _535  and  _536
REMARK  207  A    between atoms: _542  and  _544
REMARK  208  A    between atoms: _544  and  _545
REMARK  209  A    between atoms: _544  and  _547
REMARK  210  A    between atoms: _550  and  _552
REMARK  211  A    between atoms: _552  and  _553
REMARK  212  A    between atoms: _552  and  _555
REMARK  213  A    between atoms: _555  and  _556
REMARK  214  A    between atoms: _556  and  _557
REMARK  215  A    between atoms: _560  and  _562
REMARK  216  A    between atoms: _562  and  _563
REMARK  217  A    between atoms: _562  and  _565
REMARK  218  A    between atoms: _565  and  _566
REMARK  219  A    between atoms: _569  and  _571
REMARK  220  A    between atoms: _571  and  _572
REMARK  221  A    between atoms: _571  and  _574
REMARK  222  A    between atoms: _574  and  _575
REMARK  223  A    between atoms: _580  and  _581
REMARK  224  A    between atoms: _583  and  _585
REMARK  225  A    between atoms: _585  and  _586
REMARK  226  A    between atoms: _589  and  _590
REMARK                            x       y       z     vdW  Elec       q    Type
REMARK                         _______ _______ _______ _____ _____    ______ ____
ROOT
ATOM      1  CG  TRP A   1      -6.515  -2.391  -8.239  0.00  0.00    -0.002 A 
ATOM      2  CD2 TRP A   1      -5.419  -3.316  -8.326  0.00  0.00    +0.013 A 
ATOM      3  CE3 TRP A   1      -4.749  -4.116  -7.387  0.00  0.00    +0.001 A 
ATOM      4  CZ3 TRP A   1      -3.669  -4.880  -7.818  0.00  0.00    +0.000 A 
ATOM      5  CH2 TRP A   1      -3.272  -4.877  -9.169  0.00  0.00    +0.001 A 
ATOM      6  CZ2 TRP A   1      -3.865  -4.057 -10.089  0.00  0.00    +0.017 A 
ATOM      7  CE2 TRP A   1      -4.949  -3.288  -9.659  0.00  0.00    +0.056 A 
ATOM      8  NE1 TRP A   1      -5.743  -2.424 -10.361  0.00  0.00    -0.352 N 
ATOM      9  HE1 TRP A   1      -5.640  -2.196 -11.370  0.00  0.00    +0.166 HD
ATOM     10  CD1 TRP A   1      -6.704  -1.902  -9.515  0.00  0.00    +0.068 A 
ENDROOT
BRANCH   1  11
ATOM     11  CB  TRP A   1      -7.338  -2.090  -7.027  0.00  0.00    +0.053 C 
BRANCH  11  12
ATOM     12  CA  TRP A   1      -8.504  -3.063  -6.846  0.00  0.00    +0.137 C 
BRANCH  12  13
ATOM     13  N   TRP A   1      -9.387  -2.636  -5.769  0.00  0.00    -0.239 NA
ATOM     14  H   TRP A   1      -9.162  -1.773  -5.235  0.00  0.00    +0.142 HD
ENDBRANCH  12  13
BRANCH  12  15
ATOM     15  C   TRP A   1      -7.973  -4.432  -6.535  0.00  0.00    +0.224 C 
ATOM     16  O   TRP A   1      -7.968  -5.302  -7.389  0.00  0.00    -0.287 OA
ENDBRANCH  12  15
ENDBRANCH  11  12
ENDBRANCH   1  11
TORSDOF 4
REMARK  Name = ../refined-set-2016/4lvt/4lvt_pocket.pdb
REMARK  226 active torsions:
REMARK  status: ('A' for Active; 'I' for Inactive)
REMARK    1  A    between atoms: _1  and  _3
REMARK    2  A    between atoms: _3  and  _4
REMARK    3  A    between atoms: _3  and  _6
REMARK    4  A    between atoms: _6  and  _7
REMARK    5  A    between atoms: _12  and  _13
REMARK    6  A    between atoms: _15  and  _17
REMARK    7  A    between atoms: _17  and  _18
REMARK    8  A    between atoms: _17  and  _20
REMARK    9  A    between atoms: _20  and  _21
REMARK   10  A    between atoms: _24  and  _26
REMARK   11  A    between atoms: _26  and  _27
REMARK   12  A    between atoms: _26  and  _29
REMARK   13  A    between atoms: _29  and  _30
REMARK   14  A    between atoms: _33  and  _35
REMARK   15  A    between atoms: _35  and  _36
REMARK   16  A    between atoms: _35  and  _38
REMARK   17  A    between atoms: _38  and  _39
REMARK   18  A    between atoms: _39  and  _40
REMARK   19  A    between atoms: _45  and  _47
REMARK   20  A    between atoms: _47  and  _48
REMARK   21  A    between atoms: _51  and  _53
REMARK   22  A    between atoms: _53  and  _54
REMARK   23  A    between atoms: _56  and  _58
REMARK   24  A    between atoms: _58  and  _59
REMARK   25  A    between atoms: _58  and  _61
REMARK   26  A    between atoms: _61  and  _62
REMARK   27  A    between atoms: _65  and  _67
REMARK   28  A    between atoms: _67  and  _68
REMARK   29  A    between atoms: _67  and  _70
REMARK   30  A    between atoms: _70  and  _71
REMARK   31  A    between atoms: _74  and  _76
REMARK   32  A    between atoms: _76  and  _77
REMARK   33  A    between atoms: _76  and  _79
REMARK   34  A    between atoms: _79  and  _80
REMARK   35  A    between atoms: _86  and  _88
REMARK   36  A    between atoms: _88  and  _89
REMARK   37  A    between atoms: _88  and  _91
REMARK   38  A    between atoms: _91  and  _92
REMARK   39  A    between atoms: _94  and  _96
REMARK   40  A    between atoms: _96  and  _97
REMARK   41  A    between atoms: _96  and  _99
REMARK   42  A    between atoms: _99  and  _100
REMARK   43  A    between atoms: _100  and  _101
REMARK   44  A    between atoms: _101  and  _102
REMARK   45  A    between atoms: _111  and  _113
REMARK   46  A    between atoms: _113  and  _114
REMARK   47  A    between atoms: _113  and  _116
REMARK   48  A    between atoms: _116  and  _117
REMARK   49  A    between atoms: _117  and  _118
REMARK   50  A    between atoms: _118  and  _119
REMARK   51  A    between atoms: _128  and  _130
REMARK   52  A    between atoms: _130  and  _131
REMARK   53  A    between atoms: _130  and  _133
REMARK   54  A    between atoms: _133  and  _134
REMARK   55  A    between atoms: _139  and  _140
REMARK   56  A    between atoms: _142  and  _144
REMARK   57  A    between atoms: _144  and  _145
REMARK   58  A    between atoms: _144  and  _147
REMARK   59  A    between atoms: _147  and  _148
REMARK   60  A    between atoms: _148  and  _149
REMARK   61  A    between atoms: _149  and  _150
REMARK   62  A    between atoms: _159  and  _161
REMARK   63  A    between atoms: _161  and  _162
REMARK   64  A    between atoms: _161  and  _164
REMARK   65  A    between atoms: _164  and  _165
REMARK   66  A    between atoms: _165  and  _166
REMARK   67  A    between atoms: _166  and  _167
REMARK   68  A    between atoms: _176  and  _178
REMARK   69  A    between atoms: _178  and  _179
REMARK   70  A    between atoms: _178  and  _181
REMARK   71  A    between atoms: _181  and  _182
REMARK   72  A    between atoms: _185  and  _187
REMARK   73  A    between atoms: _187  and  _188
REMARK   74  A    between atoms: _187  and  _190
REMARK   75  A    between atoms: _190  and  _191
REMARK   76  A    between atoms: _197  and  _199
REMARK   77  A    between atoms: _199  and  _200
REMARK   78  A    between atoms: _203  and  _205
REMARK   79  A    between atoms: _205  and  _206
REMARK   80  A    between atoms: _205  and  _208
REMARK   81  A    between atoms: _208  and  _209
REMARK   82  A    between atoms: _209  and  _210
REMARK   83  A    between atoms: _213  and  _215
REMARK   84  A    between atoms: _215  and  _216
REMARK   85  A    between atoms: _215  and  _218
REMARK   86  A    between atoms: _218  and  _219
REMARK   87  A    between atoms: _219  and  _220
REMARK   88  A    between atoms: _222  and  _224
REMARK   89  A    between atoms: _224  and  _225
REMARK   90  A    between atoms: _224  and  _227
REMARK   91  A    between atoms: _227  and  _228
REMARK   92  A    between atoms: _230  and  _232
REMARK   93  A    between atoms: _232  and  _233
REMARK   94  A    between atoms: _232  and  _235
REMARK   95  A    between atoms: _235  and  _236
REMARK   96  A    between atoms: _236  and  _237
REMARK   97  A    between atoms: _237  and  _238
REMARK   98  A    between atoms: _247  and  _249
REMARK   99  A    between atoms: _249  and  _250
REMARK  100  A    between atoms: _249  and  _252
REMARK  101  A    between atoms: _252  and  _253
REMARK  102  A    between atoms: _256  and  _258
REMARK  103  A    between atoms: _258  and  _259
REMARK  104  A    between atoms: _258  and  _261
REMARK  105  A    between atoms: _264  and  _266
REMARK  106  A    between atoms: _266  and  _267
REMARK  107  A    between atoms: _266  and  _269
REMARK  108  A    between atoms: _272  and  _274
REMARK  109  A    between atoms: _274  and  _275
REMARK  110  A    between atoms: _274  and  _277
REMARK  111  A    between atoms: _277  and  _278
REMARK  112  A    between atoms: _278  and  _279
REMARK  113  A    between atoms: _282  and  _284
REMARK  114  A    between atoms: _284  and  _285
REMARK  115  A    between atoms: _284  and  _287
REMARK  116  A    between atoms: _287  and  _288
REMARK  117  A    between atoms: _288  and  _289
REMARK  118  A    between atoms: _292  and  _294
REMARK  119  A    between atoms: _294  and  _295
REMARK  120  A    between atoms: _294  and  _297
REMARK  121  A    between atoms: _297  and  _298
REMARK  122  A    between atoms: _301  and  _303
REMARK  123  A    between atoms: _303  and  _304
REMARK  124  A    between atoms: _303  and  _306
REMARK  125  A    between atoms: _306  and  _307
REMARK  126  A    between atoms: _313  and  _315
REMARK  127  A    between atoms: _315  and  _316
REMARK  128  A    between atoms: _315  and  _318
REMARK  129  A    between atoms: _318  and  _319
REMARK  130  A    between atoms: _319  and  _320
REMARK  131  A    between atoms: _320  and  _321
REMARK  132  A    between atoms: _330  and  _332
REMARK  133  A    between atoms: _332  and  _333
REMARK  134  A    between atoms: _332  and  _335
REMARK  135  A    between atoms: _335  and  _336
REMARK  136  A    between atoms: _339  and  _341
REMARK  137  A    between atoms: _341  and  _342
REMARK  138  A    between atoms: _341  and  _344
REMARK  139  A    between atoms: _347  and  _349
REMARK  140  A    between atoms: _349  and  _350
REMARK  141  A    between atoms: _349  and  _352
REMARK  142  A    between atoms: _352  and  _353
REMARK  143  A    between atoms: _358  and  _360
REMARK  144  A    between atoms: _360  and  _361
REMARK  145  A    between atoms: _360  and  _363
REMARK  146  A    between atoms: _363  and  _364
REMARK  147  A    between atoms: _374  and  _376
REMARK  148  A    between atoms: _376  and  _377
REMARK  149  A    between atoms: _379  and  _381
REMARK  150  A    between atoms: _381  and  _382
REMARK  151  A    between atoms: _381  and  _384
REMARK  152  A    between atoms: _384  and  _385
REMARK  153  A    between atoms: _385  and  _386
REMARK  154  A    between atoms: _386  and  _387
REMARK  155  A    between atoms: _396  and  _398
REMARK  156  A    between atoms: _398  and  _399
REMARK  157  A    between atoms: _398  and  _401
REMARK  158  A    between atoms: _401  and  _402
REMARK  159  A    between atoms: _405  and  _407
REMARK  160  A    between atoms: _407  and  _408
REMARK  161  A    between atoms: _407  and  _410
REMARK  162  A    between atoms: _413  and  _415
REMARK  163  A    between atoms: _415  and  _416
REMARK  164  A    between atoms: _419  and  _421
REMARK  165  A    between atoms: _421  and  _422
REMARK  166  A    between atoms: _421  and  _424
REMARK  167  A    between atoms: _424  and  _425
REMARK  168  A    between atoms: _431  and  _433
REMARK  169  A    between atoms: _433  and  _434
REMARK  170  A    between atoms: _433  and  _436
REMARK  171  A    between atoms: _436  and  _437
REMARK  172  A    between atoms: _443  and  _445
REMARK  173  A    between atoms: _445  and  _446
REMARK  174  A    between atoms: _445  and  _448
REMARK  175  A    between atoms: _448  and  _449
REMARK  176  A    between atoms: _449  and  _450
REMARK  177  A    between atoms: _453  and  _455
REMARK  178  A    between atoms: _455  and  _456
REMARK  179  A    between atoms: _455  and  _458
REMARK  180  A    between atoms: _458  and  _459
REMARK  181  A    between atoms: _465  and  _467
REMARK  182  A    between atoms: _467  and  _468
REMARK  183  A    between atoms: _470  and  _472
REMARK  184  A    between atoms: _472  and  _473
REMARK  185  A    between atoms: _475  and  _477
REMARK  186  A    between atoms: _477  and  _478
REMARK  187  A    between atoms: _477  and  _480
REMARK  188  A    between atoms: _483  and  _485
REMARK  189  A    between atoms: _485  and  _486
REMARK  190  A    between atoms: _485  and  _488
REMARK  191  A    between atoms: _488  and  _489
REMARK  192  A    between atoms: _489  and  _490
REMARK  193  A    between atoms: _492  and  _494
REMARK  194  A    between atoms: _494  and  _495
REMARK  195  A    between atoms: _494  and  _497
REMARK  196  A    between atoms: _497  and  _498
REMARK  197  A    between atoms: _508  and  _510
REMARK  198  A    between atoms: _510  and  _511
REMARK  199  A    between atoms: _510  and  _513
REMARK  200  A    between atoms: _513  and  _514
REMARK  201  A    between atoms: _524  and  _526
REMARK  202  A    between atoms: _526  and  _527
REMARK  203  A    between atoms: _530  and  _532
REMARK  204  A    between atoms: _532  and  _533
REMARK  205  A    between atoms: _532  and  _535
REMARK  206  A    between atoms: _535  and  _536
REMARK  207  A    between atoms: _542  and  _544
REMARK  208  A    between atoms: _544  and  _545
REMARK  209  A    between atoms: _544  and  _547
REMARK  210  A    between atoms: _550  and  _552
REMARK  211  A    between atoms: _552  and  _553
REMARK  212  A    between atoms: _552  and  _555
REMARK  213  A    between atoms: _555  and  _556
REMARK  214  A    between atoms: _556  and  _557
REMARK  215  A    between atoms: _560  and  _562
REMARK  216  A    between atoms: _562  and  _563
REMARK  217  A    between atoms: _562  and  _565
REMARK  218  A    between atoms: _565  and  _566
REMARK  219  A    between atoms: _569  and  _571
REMARK  220  A    between atoms: _571  and  _572
REMARK  221  A    between atoms: _571  and  _574
REMARK  222  A    between atoms: _574  and  _575
REMARK  223  A    between atoms: _580  and  _581
REMARK  224  A    between atoms: _583  and  _585
REMARK  225  A    between atoms: _585  and  _586
REMARK  226  A    between atoms: _589  and  _590
REMARK                            x       y       z     vdW  Elec       q    Type
REMARK                         _______ _______ _______ _____ _____    ______ ____
ROOT
ATOM      1  CG  TRP A   1      -3.199  -9.755  -0.304  0.00  0.00    -0.002 A 
ATOM      2  CD1 TRP A   1      -4.168  -9.052   0.340  0.00  0.00    +0.068 A 
ATOM      3  NE1 TRP A   1      -3.745  -7.759   0.561  0.00  0.00    -0.352 N 
ATOM      4  HE1 TRP A   1      -4.277  -7.032   1.080  0.00  0.00    +0.166 HD
ATOM      5  CE2 TRP A   1      -2.512  -7.583  -0.012  0.00  0.00    +0.056 A 
ATOM      6  CZ2 TRP A   1      -1.666  -6.469  -0.013  0.00  0.00    +0.017 A 
ATOM      7  CH2 TRP A   1      -0.441  -6.605  -0.592  0.00  0.00    +0.001 A 
ATOM      8  CZ3 TRP A   1      -0.028  -7.830  -1.152  0.00  0.00    +0.000 A 
ATOM      9  CE3 TRP A   1      -0.851  -8.949  -1.119  0.00  0.00    +0.001 A 
ATOM     10  CD2 TRP A   1      -2.127  -8.827  -0.555  0.00  0.00    +0.013 A 
ENDROOT
BRANCH   1  11
ATOM     11  CB  TRP A   1      -3.259 -11.224  -0.742  0.00  0.00    +0.053 C 
BRANCH  11  12
ATOM     12  CA  TRP A   1      -3.607 -11.380  -2.226  0.00  0.00    +0.137 C 
BRANCH  12  13
ATOM     13  N   TRP A   1      -5.030 -11.120  -2.440  0.00  0.00    -0.239 NA
ATOM     14  H   TRP A   1      -5.643 -11.027  -1.605  0.00  0.00    +0.142 HD
ENDBRANCH  12  13
BRANCH  12  15
ATOM     15  C   TRP A   1      -3.125 -12.738  -2.753  0.00  0.00    +0.224 C 
ATOM     16  O   TRP A   1      -1.945 -12.926  -2.986  0.00  0.00    -0.287 OA
ENDBRANCH  12  15
ENDBRANCH  11  12
ENDBRANCH   1  11
TORSDOF 4
REMARK  Name = ../refined-set-2016/4lvt/4lvt_pocket.pdb
REMARK  226 active torsions:
REMARK  status: ('A' for Active; 'I' for Inactive)
REMARK    1  A    between atoms: _1  and  _3
REMARK    2  A    between atoms: _3  and  _4
REMARK    3  A    between atoms: _3  and  _6
REMARK    4  A    between atoms: _6  and  _7
REMARK    5  A    between atoms: _12  and  _13
REMARK    6  A    between atoms: _15  and  _17
REMARK    7  A    between atoms: _17  and  _18
REMARK    8  A    between atoms: _17  and  _20
REMARK    9  A    between atoms: _20  and  _21
REMARK   10  A    between atoms: _24  and  _26
REMARK   11  A    between atoms: _26  and  _27
REMARK   12  A    between atoms: _26  and  _29
REMARK   13  A    between atoms: _29  and  _30
REMARK   14  A    between atoms: _33  and  _35
REMARK   15  A    between atoms: _35  and  _36
REMARK   16  A    between atoms: _35  and  _38
REMARK   17  A    between atoms: _38  and  _39
REMARK   18  A    between atoms: _39  and  _40
REMARK   19  A    between atoms: _45  and  _47
REMARK   20  A    between atoms: _47  and  _48
REMARK   21  A    between atoms: _51  and  _53
REMARK   22  A    between atoms: _53  and  _54
REMARK   23  A    between atoms: _56  and  _58
REMARK   24  A    between atoms: _58  and  _59
REMARK   25  A    between atoms: _58  and  _61
REMARK   26  A    between atoms: _61  and  _62
REMARK   27  A    between atoms: _65  and  _67
REMARK   28  A    between atoms: _67  and  _68
REMARK   29  A    between atoms: _67  and  _70
REMARK   30  A    between atoms: _70  and  _71
REMARK   31  A    between atoms: _74  and  _76
REMARK   32  A    between atoms: _76  and  _77
REMARK   33  A    between atoms: _76  and  _79
REMARK   34  A    between atoms: _79  and  _80
REMARK   35  A    between atoms: _86  and  _88
REMARK   36  A    between atoms: _88  and  _89
REMARK   37  A    between atoms: _88  and  _91
REMARK   38  A    between atoms: _91  and  _92
REMARK   39  A    between atoms: _94  and  _96
REMARK   40  A    between atoms: _96  and  _97
REMARK   41  A    between atoms: _96  and  _99
REMARK   42  A    between atoms: _99  and  _100
REMARK   43  A    between atoms: _100  and  _101
REMARK   44  A    between atoms: _101  and  _102
REMARK   45  A    between atoms: _111  and  _113
REMARK   46  A    between atoms: _113  and  _114
REMARK   47  A    between atoms: _113  and  _116
REMARK   48  A    between atoms: _116  and  _117
REMARK   49  A    between atoms: _117  and  _118
REMARK   50  A    between atoms: _118  and  _119
REMARK   51  A    between atoms: _128  and  _130
REMARK   52  A    between atoms: _130  and  _131
REMARK   53  A    between atoms: _130  and  _133
REMARK   54  A    between atoms: _133  and  _134
REMARK   55  A    between atoms: _139  and  _140
REMARK   56  A    between atoms: _142  and  _144
REMARK   57  A    between atoms: _144  and  _145
REMARK   58  A    between atoms: _144  and  _147
REMARK   59  A    between atoms: _147  and  _148
REMARK   60  A    between atoms: _148  and  _149
REMARK   61  A    between atoms: _149  and  _150
REMARK   62  A    between atoms: _159  and  _161
REMARK   63  A    between atoms: _161  and  _162
REMARK   64  A    between atoms: _161  and  _164
REMARK   65  A    between atoms: _164  and  _165
REMARK   66  A    between atoms: _165  and  _166
REMARK   67  A    between atoms: _166  and  _167
REMARK   68  A    between atoms: _176  and  _178
REMARK   69  A    between atoms: _178  and  _179
REMARK   70  A    between atoms: _178  and  _181
REMARK   71  A    between atoms: _181  and  _182
REMARK   72  A    between atoms: _185  and  _187
REMARK   73  A    between atoms: _187  and  _188
REMARK   74  A    between atoms: _187  and  _190
REMARK   75  A    between atoms: _190  and  _191
REMARK   76  A    between atoms: _197  and  _199
REMARK   77  A    between atoms: _199  and  _200
REMARK   78  A    between atoms: _203  and  _205
REMARK   79  A    between atoms: _205  and  _206
REMARK   80  A    between atoms: _205  and  _208
REMARK   81  A    between atoms: _208  and  _209
REMARK   82  A    between atoms: _209  and  _210
REMARK   83  A    between atoms: _213  and  _215
REMARK   84  A    between atoms: _215  and  _216
REMARK   85  A    between atoms: _215  and  _218
REMARK   86  A    between atoms: _218  and  _219
REMARK   87  A    between atoms: _219  and  _220
REMARK   88  A    between atoms: _222  and  _224
REMARK   89  A    between atoms: _224  and  _225
REMARK   90  A    between atoms: _224  and  _227
REMARK   91  A    between atoms: _227  and  _228
REMARK   92  A    between atoms: _230  and  _232
REMARK   93  A    between atoms: _232  and  _233
REMARK   94  A    between atoms: _232  and  _235
REMARK   95  A    between atoms: _235  and  _236
REMARK   96  A    between atoms: _236  and  _237
REMARK   97  A    between atoms: _237  and  _238
REMARK   98  A    between atoms: _247  and  _249
REMARK   99  A    between atoms: _249  and  _250
REMARK  100  A    between atoms: _249  and  _252
REMARK  101  A    between atoms: _252  and  _253
REMARK  102  A    between atoms: _256  and  _258
REMARK  103  A    between atoms: _258  and  _259
REMARK  104  A    between atoms: _258  and  _261
REMARK  105  A    between atoms: _264  and  _266
REMARK  106  A    between atoms: _266  and  _267
REMARK  107  A    between atoms: _266  and  _269
REMARK  108  A    between atoms: _272  and  _274
REMARK  109  A    between atoms: _274  and  _275
REMARK  110  A    between atoms: _274  and  _277
REMARK  111  A    between atoms: _277  and  _278
REMARK  112  A    between atoms: _278  and  _279
REMARK  113  A    between atoms: _282  and  _284
REMARK  114  A    between atoms: _284  and  _285
REMARK  115  A    between atoms: _284  and  _287
REMARK  116  A    between atoms: _287  and  _288
REMARK  117  A    between atoms: _288  and  _289
REMARK  118  A    between atoms: _292  and  _294
REMARK  119  A    between atoms: _294  and  _295
REMARK  120  A    between atoms: _294  and  _297
REMARK  121  A    between atoms: _297  and  _298
REMARK  122  A    between atoms: _301  and  _303
REMARK  123  A    between atoms: _303  and  _304
REMARK  124  A    between atoms: _303  and  _306
REMARK  125  A    between atoms: _306  and  _307
REMARK  126  A    between atoms: _313  and  _315
REMARK  127  A    between atoms: _315  and  _316
REMARK  128  A    between atoms: _315  and  _318
REMARK  129  A    between atoms: _318  and  _319
REMARK  130  A    between atoms: _319  and  _320
REMARK  131  A    between atoms: _320  and  _321
REMARK  132  A    between atoms: _330  and  _332
REMARK  133  A    between atoms: _332  and  _333
REMARK  134  A    between atoms: _332  and  _335
REMARK  135  A    between atoms: _335  and  _336
REMARK  136  A    between atoms: _339  and  _341
REMARK  137  A    between atoms: _341  and  _342
REMARK  138  A    between atoms: _341  and  _344
REMARK  139  A    between atoms: _347  and  _349
REMARK  140  A    between atoms: _349  and  _350
REMARK  141  A    between atoms: _349  and  _352
REMARK  142  A    between atoms: _352  and  _353
REMARK  143  A    between atoms: _358  and  _360
REMARK  144  A    between atoms: _360  and  _361
REMARK  145  A    between atoms: _360  and  _363
REMARK  146  A    between atoms: _363  and  _364
REMARK  147  A    between atoms: _374  and  _376
REMARK  148  A    between atoms: _376  and  _377
REMARK  149  A    between atoms: _379  and  _381
REMARK  150  A    between atoms: _381  and  _382
REMARK  151  A    between atoms: _381  and  _384
REMARK  152  A    between atoms: _384  and  _385
REMARK  153  A    between atoms: _385  and  _386
REMARK  154  A    between atoms: _386  and  _387
REMARK  155  A    between atoms: _396  and  _398
REMARK  156  A    between atoms: _398  and  _399
REMARK  157  A    between atoms: _398  and  _401
REMARK  158  A    between atoms: _401  and  _402
REMARK  159  A    between atoms: _405  and  _407
REMARK  160  A    between atoms: _407  and  _408
REMARK  161  A    between atoms: _407  and  _410
REMARK  162  A    between atoms: _413  and  _415
REMARK  163  A    between atoms: _415  and  _416
REMARK  164  A    between atoms: _419  and  _421
REMARK  165  A    between atoms: _421  and  _422
REMARK  166  A    between atoms: _421  and  _424
REMARK  167  A    between atoms: _424  and  _425
REMARK  168  A    between atoms: _431  and  _433
REMARK  169  A    between atoms: _433  and  _434
REMARK  170  A    between atoms: _433  and  _436
REMARK  171  A    between atoms: _436  and  _437
REMARK  172  A    between atoms: _443  and  _445
REMARK  173  A    between atoms: _445  and  _446
REMARK  174  A    between atoms: _445  and  _448
REMARK  175  A    between atoms: _448  and  _449
REMARK  176  A    between atoms: _449  and  _450
REMARK  177  A    between atoms: _453  and  _455
REMARK  178  A    between atoms: _455  and  _456
REMARK  179  A    between atoms: _455  and  _458
REMARK  180  A    between atoms: _458  and  _459
REMARK  181  A    between atoms: _465  and  _467
REMARK  182  A    between atoms: _467  and  _468
REMARK  183  A    between atoms: _470  and  _472
REMARK  184  A    between atoms: _472  and  _473
REMARK  185  A    between atoms: _475  and  _477
REMARK  186  A    between atoms: _477  and  _478
REMARK  187  A    between atoms: _477  and  _480
REMARK  188  A    between atoms: _483  and  _485
REMARK  189  A    between atoms: _485  and  _486
REMARK  190  A    between atoms: _485  and  _488
REMARK  191  A    between atoms: _488  and  _489
REMARK  192  A    between atoms: _489  and  _490
REMARK  193  A    between atoms: _492  and  _494
REMARK  194  A    between atoms: _494  and  _495
REMARK  195  A    between atoms: _494  and  _497
REMARK  196  A    between atoms: _497  and  _498
REMARK  197  A    between atoms: _508  and  _510
REMARK  198  A    between atoms: _510  and  _511
REMARK  199  A    between atoms: _510  and  _513
REMARK  200  A    between atoms: _513  and  _514
REMARK  201  A    between atoms: _524  and  _526
REMARK  202  A    between atoms: _526  and  _527
REMARK  203  A    between atoms: _530  and  _532
REMARK  204  A    between atoms: _532  and  _533
REMARK  205  A    between atoms: _532  and  _535
REMARK  206  A    between atoms: _535  and  _536
REMARK  207  A    between atoms: _542  and  _544
REMARK  208  A    between atoms: _544  and  _545
REMARK  209  A    between atoms: _544  and  _547
REMARK  210  A    between atoms: _550  and  _552
REMARK  211  A    between atoms: _552  and  _553
REMARK  212  A    between atoms: _552  and  _555
REMARK  213  A    between atoms: _555  and  _556
REMARK  214  A    between atoms: _556  and  _557
REMARK  215  A    between atoms: _560  and  _562
REMARK  216  A    between atoms: _562  and  _563
REMARK  217  A    between atoms: _562  and  _565
REMARK  218  A    between atoms: _565  and  _566
REMARK  219  A    between atoms: _569  and  _571
REMARK  220  A    between atoms: _571  and  _572
REMARK  221  A    between atoms: _571  and  _574
REMARK  222  A    between atoms: _574  and  _575
REMARK  223  A    between atoms: _580  and  _581
REMARK  224  A    between atoms: _583  and  _585
REMARK  225  A    between atoms: _585  and  _586
REMARK  226  A    between atoms: _589  and  _590
REMARK                            x       y       z     vdW  Elec       q    Type
REMARK                         _______ _______ _______ _____ _____    ______ ____
ROOT
ATOM      1  C   GLU A   4       1.819 -15.810  -8.502  0.00  0.00    +0.241 C 
ATOM      2  N   LEU A   5       1.582 -14.511  -8.685  0.00  0.00    -0.297 N 
ATOM      3  H   LEU A   5       0.816 -14.060  -8.145  0.00  0.00    +0.150 HD
ATOM      4  O   GLU A   4       2.694 -16.429  -9.103  0.00  0.00    -0.273 OA
ENDROOT
BRANCH   1   5
ATOM      5  CA  GLU A   4       0.866 -16.526  -7.570  0.00  0.00    +0.149 C 
BRANCH   5   8
ATOM      6  C   VAL A   3       1.659 -15.497  -5.538  0.00  0.00    +0.241 C 
ATOM      7  O   VAL A   3       2.817 -15.823  -5.806  0.00  0.00    -0.273 OA
ATOM      8  N   GLU A   4       0.648 -15.755  -6.352  0.00  0.00    -0.297 N 
ATOM      9  H   GLU A   4      -0.305 -15.407  -6.122  0.00  0.00    +0.150 HD
BRANCH   6  10
ATOM     10  CA  VAL A   3       1.327 -14.676  -4.279  0.00  0.00    +0.149 C 
BRANCH  10  12
ATOM     11  C   PHE A   2       0.867 -12.629  -5.473  0.00  0.00    +0.241 C 
ATOM     12  N   VAL A   3       0.474 -13.516  -4.575  0.00  0.00    -0.297 N 
ATOM     13  H   VAL A   3      -0.433 -13.394  -4.081  0.00  0.00    +0.150 HD
ATOM     14  O   PHE A   2       1.944 -12.722  -6.047  0.00  0.00    -0.273 OA
BRANCH  11  15
ATOM     15  CA  PHE A   2      -0.095 -11.481  -5.759  0.00  0.00    +0.153 C 
BRANCH  15  17
ATOM     16  C   ALA A   1      -1.718 -12.850  -6.953  0.00  0.00    +0.238 C 
ATOM     17  N   PHE A   2      -1.435 -12.045  -5.941  0.00  0.00    -0.297 N 
ATOM     18  H   PHE A   2      -2.182 -11.807  -5.258  0.00  0.00    +0.150 HD
ATOM     19  O   ALA A   1      -0.894 -13.149  -7.832  0.00  0.00    -0.274 OA
BRANCH  16  20
ATOM     20  CA  ALA A   1      -3.140 -13.400  -6.979  0.00  0.00    +0.145 C 
ATOM     21  CB  ALA A   1      -4.064 -12.430  -7.668  0.00  0.00    +0.028 C 
BRANCH  20  22
ATOM     22  N   ALA A   1      -3.616 -13.737  -5.632  0.00  0.00    -0.238 NA
ATOM     23  H   ALA A   1      -4.400 -13.189  -5.223  0.00  0.00    +0.142 HD
ENDBRANCH  20  22
ENDBRANCH  16  20
ENDBRANCH  15  17
BRANCH  15  24
ATOM     24  CB  PHE A   2      -0.099 -10.531  -4.555  0.00  0.00    +0.055 C 
BRANCH  24  25
ATOM     25  CG  PHE A   2       1.268 -10.060  -4.170  0.00  0.00    -0.020 A 
ATOM     26  CD2 PHE A   2       1.869 -10.502  -2.997  0.00  0.00    -0.004 A 
ATOM     27  CE2 PHE A   2       3.170 -10.084  -2.666  0.00  0.00    -0.000 A 
ATOM     28  CZ  PHE A   2       3.838  -9.209  -3.509  0.00  0.00    -0.000 A 
ATOM     29  CE1 PHE A   2       3.226  -8.773  -4.671  0.00  0.00    -0.000 A 
ATOM     30  CD1 PHE A   2       1.965  -9.210  -5.000  0.00  0.00    -0.004 A 
ENDBRANCH  24  25
ENDBRANCH  15  24
ENDBRANCH  11  15
ENDBRANCH  10  12
BRANCH  10  31
ATOM     31  CB  VAL A   3       0.744 -15.542  -3.172  0.00  0.00    +0.027 C 
ATOM     32  CG2 VAL A   3       0.734 -14.765  -1.849  0.00  0.00    +0.002 C 
ATOM     33  CG1 VAL A   3       1.558 -16.856  -3.034  0.00  0.00    +0.002 C 
ENDBRANCH  10  31
ENDBRANCH   6  10
ENDBRANCH   5   8
BRANCH   5  34
ATOM     34  CB  GLU A   4      -0.452 -16.724  -8.298  0.00  0.00    +0.041 C 
BRANCH  34  35
ATOM     35  CG  GLU A   4      -0.287 -17.251  -9.699  0.00  0.00    +0.116 C 
BRANCH  35  36
ATOM     36  CD  GLU A   4      -1.575 -17.809 -10.225  0.00  0.00    +0.365 C 
ATOM     37  OE2 GLU A   4      -2.243 -18.535  -9.459  0.00  0.00    -0.246 OA
ATOM     38  OE1 GLU A   4      -1.947 -17.485 -11.377  0.00  0.00    -0.246 OA
ENDBRANCH  35  36
ENDBRANCH  34  35
ENDBRANCH   5  34
ENDBRANCH   1   5
BRANCH   2  39
ATOM     39  CA  LEU A   5       2.357 -13.699  -9.615  0.00  0.00    +0.149 C 
BRANCH  39  40
ATOM     40  C   LEU A   5       3.821 -13.638  -9.221  0.00  0.00    +0.241 C 
ATOM     41  N   TYR A   6       4.081 -13.495  -7.928  0.00  0.00    -0.297 N 
ATOM     42  H   TYR A   6       3.305 -13.441  -7.238  0.00  0.00    +0.150 HD
ATOM     43  O   LEU A   5       4.716 -13.666 -10.078  0.00  0.00    -0.273 OA
BRANCH  41  44
ATOM     44  CA  TYR A   6       5.468 -13.414  -7.485  0.00  0.00    +0.153 C 
BRANCH  44  45
ATOM     45  C   TYR A   6       6.151 -14.777  -7.557  0.00  0.00    +0.241 C 
ATOM     46  N   GLY A   7       5.446 -15.810  -7.111  0.00  0.00    -0.295 N 
ATOM     47  H   GLY A   7       4.477 -15.638  -6.774  0.00  0.00    +0.150 HD
ATOM     48  O   TYR A   6       7.290 -14.879  -8.008  0.00  0.00    -0.273 OA
BRANCH  46  49
ATOM     49  CA  GLY A   7       5.960 -17.171  -7.070  0.00  0.00    +0.176 C 
BRANCH  49  50
ATOM     50  C   GLY A   7       6.510 -17.474  -5.680  0.00  0.00    +0.246 C 
ATOM     51  N   PRO A   8       5.806 -18.310  -4.891  0.00  0.00    -0.273 N 
ATOM     52  CD  PRO A   8       5.704 -17.443  -3.706  0.00  0.00    +0.094 C 
ATOM     53  CG  PRO A   8       4.940 -18.306  -2.735  0.00  0.00    +0.024 C 
ATOM     54  CB  PRO A   8       4.186 -19.383  -3.565  0.00  0.00    +0.030 C 
ATOM     55  CA  PRO A   8       4.620 -19.160  -5.024  0.00  0.00    +0.140 C 
ATOM     56  O   GLY A   7       7.540 -16.930  -5.280  0.00  0.00    -0.273 OA
BRANCH  55  57
ATOM     57  C   PRO A   8       3.507 -18.494  -5.816  0.00  0.00    +0.227 C 
ATOM     58  O   PRO A   8       3.061 -19.021  -6.833  0.00  0.00    -0.286 OA
ENDBRANCH  55  57
ENDBRANCH  49  50
ENDBRANCH  46  49
ENDBRANCH  44  45
BRANCH  44  59
ATOM     59  CB  TYR A   6       5.597 -12.833  -6.069  0.00  0.00    +0.055 C 
BRANCH  59  60
ATOM     60  CG  TYR A   6       7.034 -12.644  -5.664  0.00  0.00    -0.020 A 
ATOM     61  CD2 TYR A   6       7.722 -13.647  -4.980  0.00  0.00    -0.001 A 
ATOM     62  CE2 TYR A   6       9.069 -13.496  -4.652  0.00  0.00    +0.036 A 
ATOM     63  CZ  TYR A   6       9.734 -12.360  -5.053  0.00  0.00    +0.134 A 
ATOM     64  CE1 TYR A   6       9.071 -11.361  -5.725  0.00  0.00    +0.036 A 
ATOM     65  CD1 TYR A   6       7.740 -11.530  -6.068  0.00  0.00    -0.001 A 
BRANCH  63  66
ATOM     66  OH  TYR A   6      11.063 -12.197  -4.717  0.00  0.00    -0.506 OA
ATOM     67  HH  TYR A   6      11.390 -11.335  -5.078  0.00  0.00    +0.292 HD
ENDBRANCH  63  66
ENDBRANCH  59  60
ENDBRANCH  44  59
ENDBRANCH  41  44
ENDBRANCH  39  40
BRANCH  39  68
ATOM     68  CB  LEU A   5       1.790 -12.286  -9.636  0.00  0.00    +0.029 C 
BRANCH  68  69
ATOM     69  CG  LEU A   5       1.657 -11.530 -10.940  0.00  0.00    +0.002 C 
ATOM     70  CD2 LEU A   5       0.673 -10.387 -10.720  0.00  0.00    +0.000 C 
ATOM     71  CD1 LEU A   5       1.205 -12.436 -12.067  0.00  0.00    +0.000 C 
ENDBRANCH  68  69
ENDBRANCH  39  68
ENDBRANCH   2  39
TORSDOF 26
REMARK  Name = ../refined-set-2016/4lvt/4lvt_pocket.pdb
REMARK  226 active torsions:
REMARK  status: ('A' for Active; 'I' for Inactive)
REMARK    1  A    between atoms: _1  and  _3
REMARK    2  A    between atoms: _3  and  _4
REMARK    3  A    between atoms: _3  and  _6
REMARK    4  A    between atoms: _6  and  _7
REMARK    5  A    between atoms: _12  and  _13
REMARK    6  A    between atoms: _15  and  _17
REMARK    7  A    between atoms: _17  and  _18
REMARK    8  A    between atoms: _17  and  _20
REMARK    9  A    between atoms: _20  and  _21
REMARK   10  A    between atoms: _24  and  _26
REMARK   11  A    between atoms: _26  and  _27
REMARK   12  A    between atoms: _26  and  _29
REMARK   13  A    between atoms: _29  and  _30
REMARK   14  A    between atoms: _33  and  _35
REMARK   15  A    between atoms: _35  and  _36
REMARK   16  A    between atoms: _35  and  _38
REMARK   17  A    between atoms: _38  and  _39
REMARK   18  A    between atoms: _39  and  _40
REMARK   19  A    between atoms: _45  and  _47
REMARK   20  A    between atoms: _47  and  _48
REMARK   21  A    between atoms: _51  and  _53
REMARK   22  A    between atoms: _53  and  _54
REMARK   23  A    between atoms: _56  and  _58
REMARK   24  A    between atoms: _58  and  _59
REMARK   25  A    between atoms: _58  and  _61
REMARK   26  A    between atoms: _61  and  _62
REMARK   27  A    between atoms: _65  and  _67
REMARK   28  A    between atoms: _67  and  _68
REMARK   29  A    between atoms: _67  and  _70
REMARK   30  A    between atoms: _70  and  _71
REMARK   31  A    between atoms: _74  and  _76
REMARK   32  A    between atoms: _76  and  _77
REMARK   33  A    between atoms: _76  and  _79
REMARK   34  A    between atoms: _79  and  _80
REMARK   35  A    between atoms: _86  and  _88
REMARK   36  A    between atoms: _88  and  _89
REMARK   37  A    between atoms: _88  and  _91
REMARK   38  A    between atoms: _91  and  _92
REMARK   39  A    between atoms: _94  and  _96
REMARK   40  A    between atoms: _96  and  _97
REMARK   41  A    between atoms: _96  and  _99
REMARK   42  A    between atoms: _99  and  _100
REMARK   43  A    between atoms: _100  and  _101
REMARK   44  A    between atoms: _101  and  _102
REMARK   45  A    between atoms: _111  and  _113
REMARK   46  A    between atoms: _113  and  _114
REMARK   47  A    between atoms: _113  and  _116
REMARK   48  A    between atoms: _116  and  _117
REMARK   49  A    between atoms: _117  and  _118
REMARK   50  A    between atoms: _118  and  _119
REMARK   51  A    between atoms: _128  and  _130
REMARK   52  A    between atoms: _130  and  _131
REMARK   53  A    between atoms: _130  and  _133
REMARK   54  A    between atoms: _133  and  _134
REMARK   55  A    between atoms: _139  and  _140
REMARK   56  A    between atoms: _142  and  _144
REMARK   57  A    between atoms: _144  and  _145
REMARK   58  A    between atoms: _144  and  _147
REMARK   59  A    between atoms: _147  and  _148
REMARK   60  A    between atoms: _148  and  _149
REMARK   61  A    between atoms: _149  and  _150
REMARK   62  A    between atoms: _159  and  _161
REMARK   63  A    between atoms: _161  and  _162
REMARK   64  A    between atoms: _161  and  _164
REMARK   65  A    between atoms: _164  and  _165
REMARK   66  A    between atoms: _165  and  _166
REMARK   67  A    between atoms: _166  and  _167
REMARK   68  A    between atoms: _176  and  _178
REMARK   69  A    between atoms: _178  and  _179
REMARK   70  A    between atoms: _178  and  _181
REMARK   71  A    between atoms: _181  and  _182
REMARK   72  A    between atoms: _185  and  _187
REMARK   73  A    between atoms: _187  and  _188
REMARK   74  A    between atoms: _187  and  _190
REMARK   75  A    between atoms: _190  and  _191
REMARK   76  A    between atoms: _197  and  _199
REMARK   77  A    between atoms: _199  and  _200
REMARK   78  A    between atoms: _203  and  _205
REMARK   79  A    between atoms: _205  and  _206
REMARK   80  A    between atoms: _205  and  _208
REMARK   81  A    between atoms: _208  and  _209
REMARK   82  A    between atoms: _209  and  _210
REMARK   83  A    between atoms: _213  and  _215
REMARK   84  A    between atoms: _215  and  _216
REMARK   85  A    between atoms: _215  and  _218
REMARK   86  A    between atoms: _218  and  _219
REMARK   87  A    between atoms: _219  and  _220
REMARK   88  A    between atoms: _222  and  _224
REMARK   89  A    between atoms: _224  and  _225
REMARK   90  A    between atoms: _224  and  _227
REMARK   91  A    between atoms: _227  and  _228
REMARK   92  A    between atoms: _230  and  _232
REMARK   93  A    between atoms: _232  and  _233
REMARK   94  A    between atoms: _232  and  _235
REMARK   95  A    between atoms: _235  and  _236
REMARK   96  A    between atoms: _236  and  _237
REMARK   97  A    between atoms: _237  and  _238
REMARK   98  A    between atoms: _247  and  _249
REMARK   99  A    between atoms: _249  and  _250
REMARK  100  A    between atoms: _249  and  _252
REMARK  101  A    between atoms: _252  and  _253
REMARK  102  A    between atoms: _256  and  _258
REMARK  103  A    between atoms: _258  and  _259
REMARK  104  A    between atoms: _258  and  _261
REMARK  105  A    between atoms: _264  and  _266
REMARK  106  A    between atoms: _266  and  _267
REMARK  107  A    between atoms: _266  and  _269
REMARK  108  A    between atoms: _272  and  _274
REMARK  109  A    between atoms: _274  and  _275
REMARK  110  A    between atoms: _274  and  _277
REMARK  111  A    between atoms: _277  and  _278
REMARK  112  A    between atoms: _278  and  _279
REMARK  113  A    between atoms: _282  and  _284
REMARK  114  A    between atoms: _284  and  _285
REMARK  115  A    between atoms: _284  and  _287
REMARK  116  A    between atoms: _287  and  _288
REMARK  117  A    between atoms: _288  and  _289
REMARK  118  A    between atoms: _292  and  _294
REMARK  119  A    between atoms: _294  and  _295
REMARK  120  A    between atoms: _294  and  _297
REMARK  121  A    between atoms: _297  and  _298
REMARK  122  A    between atoms: _301  and  _303
REMARK  123  A    between atoms: _303  and  _304
REMARK  124  A    between atoms: _303  and  _306
REMARK  125  A    between atoms: _306  and  _307
REMARK  126  A    between atoms: _313  and  _315
REMARK  127  A    between atoms: _315  and  _316
REMARK  128  A    between atoms: _315  and  _318
REMARK  129  A    between atoms: _318  and  _319
REMARK  130  A    between atoms: _319  and  _320
REMARK  131  A    between atoms: _320  and  _321
REMARK  132  A    between atoms: _330  and  _332
REMARK  133  A    between atoms: _332  and  _333
REMARK  134  A    between atoms: _332  and  _335
REMARK  135  A    between atoms: _335  and  _336
REMARK  136  A    between atoms: _339  and  _341
REMARK  137  A    between atoms: _341  and  _342
REMARK  138  A    between atoms: _341  and  _344
REMARK  139  A    between atoms: _347  and  _349
REMARK  140  A    between atoms: _349  and  _350
REMARK  141  A    between atoms: _349  and  _352
REMARK  142  A    between atoms: _352  and  _353
REMARK  143  A    between atoms: _358  and  _360
REMARK  144  A    between atoms: _360  and  _361
REMARK  145  A    between atoms: _360  and  _363
REMARK  146  A    between atoms: _363  and  _364
REMARK  147  A    between atoms: _374  and  _376
REMARK  148  A    between atoms: _376  and  _377
REMARK  149  A    between atoms: _379  and  _381
REMARK  150  A    between atoms: _381  and  _382
REMARK  151  A    between atoms: _381  and  _384
REMARK  152  A    between atoms: _384  and  _385
REMARK  153  A    between atoms: _385  and  _386
REMARK  154  A    between atoms: _386  and  _387
REMARK  155  A    between atoms: _396  and  _398
REMARK  156  A    between atoms: _398  and  _399
REMARK  157  A    between atoms: _398  and  _401
REMARK  158  A    between atoms: _401  and  _402
REMARK  159  A    between atoms: _405  and  _407
REMARK  160  A    between atoms: _407  and  _408
REMARK  161  A    between atoms: _407  and  _410
REMARK  162  A    between atoms: _413  and  _415
REMARK  163  A    between atoms: _415  and  _416
REMARK  164  A    between atoms: _419  and  _421
REMARK  165  A    between atoms: _421  and  _422
REMARK  166  A    between atoms: _421  and  _424
REMARK  167  A    between atoms: _424  and  _425
REMARK  168  A    between atoms: _431  and  _433
REMARK  169  A    between atoms: _433  and  _434
REMARK  170  A    between atoms: _433  and  _436
REMARK  171  A    between atoms: _436  and  _437
REMARK  172  A    between atoms: _443  and  _445
REMARK  173  A    between atoms: _445  and  _446
REMARK  174  A    between atoms: _445  and  _448
REMARK  175  A    between atoms: _448  and  _449
REMARK  176  A    between atoms: _449  and  _450
REMARK  177  A    between atoms: _453  and  _455
REMARK  178  A    between atoms: _455  and  _456
REMARK  179  A    between atoms: _455  and  _458
REMARK  180  A    between atoms: _458  and  _459
REMARK  181  A    between atoms: _465  and  _467
REMARK  182  A    between atoms: _467  and  _468
REMARK  183  A    between atoms: _470  and  _472
REMARK  184  A    between atoms: _472  and  _473
REMARK  185  A    between atoms: _475  and  _477
REMARK  186  A    between atoms: _477  and  _478
REMARK  187  A    between atoms: _477  and  _480
REMARK  188  A    between atoms: _483  and  _485
REMARK  189  A    between atoms: _485  and  _486
REMARK  190  A    between atoms: _485  and  _488
REMARK  191  A    between atoms: _488  and  _489
REMARK  192  A    between atoms: _489  and  _490
REMARK  193  A    between atoms: _492  and  _494
REMARK  194  A    between atoms: _494  and  _495
REMARK  195  A    between atoms: _494  and  _497
REMARK  196  A    between atoms: _497  and  _498
REMARK  197  A    between atoms: _508  and  _510
REMARK  198  A    between atoms: _510  and  _511
REMARK  199  A    between atoms: _510  and  _513
REMARK  200  A    between atoms: _513  and  _514
REMARK  201  A    between atoms: _524  and  _526
REMARK  202  A    between atoms: _526  and  _527
REMARK  203  A    between atoms: _530  and  _532
REMARK  204  A    between atoms: _532  and  _533
REMARK  205  A    between atoms: _532  and  _535
REMARK  206  A    between atoms: _535  and  _536
REMARK  207  A    between atoms: _542  and  _544
REMARK  208  A    between atoms: _544  and  _545
REMARK  209  A    between atoms: _544  and  _547
REMARK  210  A    between atoms: _550  and  _552
REMARK  211  A    between atoms: _552  and  _553
REMARK  212  A    between atoms: _552  and  _555
REMARK  213  A    between atoms: _555  and  _556
REMARK  214  A    between atoms: _556  and  _557
REMARK  215  A    between atoms: _560  and  _562
REMARK  216  A    between atoms: _562  and  _563
REMARK  217  A    between atoms: _562  and  _565
REMARK  218  A    between atoms: _565  and  _566
REMARK  219  A    between atoms: _569  and  _571
REMARK  220  A    between atoms: _571  and  _572
REMARK  221  A    between atoms: _571  and  _574
REMARK  222  A    between atoms: _574  and  _575
REMARK  223  A    between atoms: _580  and  _581
REMARK  224  A    between atoms: _583  and  _585
REMARK  225  A    between atoms: _585  and  _586
REMARK  226  A    between atoms: _589  and  _590
REMARK                            x       y       z     vdW  Elec       q    Type
REMARK                         _______ _______ _______ _____ _____    ______ ____
ROOT
ATOM      1  O   HOH     1      11.400  -0.115   2.736  0.00  0.00    +0.000 OA
ENDROOT
TORSDOF 0
REMARK  Name = ../refined-set-2016/4lvt/4lvt_pocket.pdb
REMARK  226 active torsions:
REMARK  status: ('A' for Active; 'I' for Inactive)
REMARK    1  A    between atoms: _1  and  _3
REMARK    2  A    between atoms: _3  and  _4
REMARK    3  A    between atoms: _3  and  _6
REMARK    4  A    between atoms: _6  and  _7
REMARK    5  A    between atoms: _12  and  _13
REMARK    6  A    between atoms: _15  and  _17
REMARK    7  A    between atoms: _17  and  _18
REMARK    8  A    between atoms: _17  and  _20
REMARK    9  A    between atoms: _20  and  _21
REMARK   10  A    between atoms: _24  and  _26
REMARK   11  A    between atoms: _26  and  _27
REMARK   12  A    between atoms: _26  and  _29
REMARK   13  A    between atoms: _29  and  _30
REMARK   14  A    between atoms: _33  and  _35
REMARK   15  A    between atoms: _35  and  _36
REMARK   16  A    between atoms: _35  and  _38
REMARK   17  A    between atoms: _38  and  _39
REMARK   18  A    between atoms: _39  and  _40
REMARK   19  A    between atoms: _45  and  _47
REMARK   20  A    between atoms: _47  and  _48
REMARK   21  A    between atoms: _51  and  _53
REMARK   22  A    between atoms: _53  and  _54
REMARK   23  A    between atoms: _56  and  _58
REMARK   24  A    between atoms: _58  and  _59
REMARK   25  A    between atoms: _58  and  _61
REMARK   26  A    between atoms: _61  and  _62
REMARK   27  A    between atoms: _65  and  _67
REMARK   28  A    between atoms: _67  and  _68
REMARK   29  A    between atoms: _67  and  _70
REMARK   30  A    between atoms: _70  and  _71
REMARK   31  A    between atoms: _74  and  _76
REMARK   32  A    between atoms: _76  and  _77
REMARK   33  A    between atoms: _76  and  _79
REMARK   34  A    between atoms: _79  and  _80
REMARK   35  A    between atoms: _86  and  _88
REMARK   36  A    between atoms: _88  and  _89
REMARK   37  A    between atoms: _88  and  _91
REMARK   38  A    between atoms: _91  and  _92
REMARK   39  A    between atoms: _94  and  _96
REMARK   40  A    between atoms: _96  and  _97
REMARK   41  A    between atoms: _96  and  _99
REMARK   42  A    between atoms: _99  and  _100
REMARK   43  A    between atoms: _100  and  _101
REMARK   44  A    between atoms: _101  and  _102
REMARK   45  A    between atoms: _111  and  _113
REMARK   46  A    between atoms: _113  and  _114
REMARK   47  A    between atoms: _113  and  _116
REMARK   48  A    between atoms: _116  and  _117
REMARK   49  A    between atoms: _117  and  _118
REMARK   50  A    between atoms: _118  and  _119
REMARK   51  A    between atoms: _128  and  _130
REMARK   52  A    between atoms: _130  and  _131
REMARK   53  A    between atoms: _130  and  _133
REMARK   54  A    between atoms: _133  and  _134
REMARK   55  A    between atoms: _139  and  _140
REMARK   56  A    between atoms: _142  and  _144
REMARK   57  A    between atoms: _144  and  _145
REMARK   58  A    between atoms: _144  and  _147
REMARK   59  A    between atoms: _147  and  _148
REMARK   60  A    between atoms: _148  and  _149
REMARK   61  A    between atoms: _149  and  _150
REMARK   62  A    between atoms: _159  and  _161
REMARK   63  A    between atoms: _161  and  _162
REMARK   64  A    between atoms: _161  and  _164
REMARK   65  A    between atoms: _164  and  _165
REMARK   66  A    between atoms: _165  and  _166
REMARK   67  A    between atoms: _166  and  _167
REMARK   68  A    between atoms: _176  and  _178
REMARK   69  A    between atoms: _178  and  _179
REMARK   70  A    between atoms: _178  and  _181
REMARK   71  A    between atoms: _181  and  _182
REMARK   72  A    between atoms: _185  and  _187
REMARK   73  A    between atoms: _187  and  _188
REMARK   74  A    between atoms: _187  and  _190
REMARK   75  A    between atoms: _190  and  _191
REMARK   76  A    between atoms: _197  and  _199
REMARK   77  A    between atoms: _199  and  _200
REMARK   78  A    between atoms: _203  and  _205
REMARK   79  A    between atoms: _205  and  _206
REMARK   80  A    between atoms: _205  and  _208
REMARK   81  A    between atoms: _208  and  _209
REMARK   82  A    between atoms: _209  and  _210
REMARK   83  A    between atoms: _213  and  _215
REMARK   84  A    between atoms: _215  and  _216
REMARK   85  A    between atoms: _215  and  _218
REMARK   86  A    between atoms: _218  and  _219
REMARK   87  A    between atoms: _219  and  _220
REMARK   88  A    between atoms: _222  and  _224
REMARK   89  A    between atoms: _224  and  _225
REMARK   90  A    between atoms: _224  and  _227
REMARK   91  A    between atoms: _227  and  _228
REMARK   92  A    between atoms: _230  and  _232
REMARK   93  A    between atoms: _232  and  _233
REMARK   94  A    between atoms: _232  and  _235
REMARK   95  A    between atoms: _235  and  _236
REMARK   96  A    between atoms: _236  and  _237
REMARK   97  A    between atoms: _237  and  _238
REMARK   98  A    between atoms: _247  and  _249
REMARK   99  A    between atoms: _249  and  _250
REMARK  100  A    between atoms: _249  and  _252
REMARK  101  A    between atoms: _252  and  _253
REMARK  102  A    between atoms: _256  and  _258
REMARK  103  A    between atoms: _258  and  _259
REMARK  104  A    between atoms: _258  and  _261
REMARK  105  A    between atoms: _264  and  _266
REMARK  106  A    between atoms: _266  and  _267
REMARK  107  A    between atoms: _266  and  _269
REMARK  108  A    between atoms: _272  and  _274
REMARK  109  A    between atoms: _274  and  _275
REMARK  110  A    between atoms: _274  and  _277
REMARK  111  A    between atoms: _277  and  _278
REMARK  112  A    between atoms: _278  and  _279
REMARK  113  A    between atoms: _282  and  _284
REMARK  114  A    between atoms: _284  and  _285
REMARK  115  A    between atoms: _284  and  _287
REMARK  116  A    between atoms: _287  and  _288
REMARK  117  A    between atoms: _288  and  _289
REMARK  118  A    between atoms: _292  and  _294
REMARK  119  A    between atoms: _294  and  _295
REMARK  120  A    between atoms: _294  and  _297
REMARK  121  A    between atoms: _297  and  _298
REMARK  122  A    between atoms: _301  and  _303
REMARK  123  A    between atoms: _303  and  _304
REMARK  124  A    between atoms: _303  and  _306
REMARK  125  A    between atoms: _306  and  _307
REMARK  126  A    between atoms: _313  and  _315
REMARK  127  A    between atoms: _315  and  _316
REMARK  128  A    between atoms: _315  and  _318
REMARK  129  A    between atoms: _318  and  _319
REMARK  130  A    between atoms: _319  and  _320
REMARK  131  A    between atoms: _320  and  _321
REMARK  132  A    between atoms: _330  and  _332
REMARK  133  A    between atoms: _332  and  _333
REMARK  134  A    between atoms: _332  and  _335
REMARK  135  A    between atoms: _335  and  _336
REMARK  136  A    between atoms: _339  and  _341
REMARK  137  A    between atoms: _341  and  _342
REMARK  138  A    between atoms: _341  and  _344
REMARK  139  A    between atoms: _347  and  _349
REMARK  140  A    between atoms: _349  and  _350
REMARK  141  A    between atoms: _349  and  _352
REMARK  142  A    between atoms: _352  and  _353
REMARK  143  A    between atoms: _358  and  _360
REMARK  144  A    between atoms: _360  and  _361
REMARK  145  A    between atoms: _360  and  _363
REMARK  146  A    between atoms: _363  and  _364
REMARK  147  A    between atoms: _374  and  _376
REMARK  148  A    between atoms: _376  and  _377
REMARK  149  A    between atoms: _379  and  _381
REMARK  150  A    between atoms: _381  and  _382
REMARK  151  A    between atoms: _381  and  _384
REMARK  152  A    between atoms: _384  and  _385
REMARK  153  A    between atoms: _385  and  _386
REMARK  154  A    between atoms: _386  and  _387
REMARK  155  A    between atoms: _396  and  _398
REMARK  156  A    between atoms: _398  and  _399
REMARK  157  A    between atoms: _398  and  _401
REMARK  158  A    between atoms: _401  and  _402
REMARK  159  A    between atoms: _405  and  _407
REMARK  160  A    between atoms: _407  and  _408
REMARK  161  A    between atoms: _407  and  _410
REMARK  162  A    between atoms: _413  and  _415
REMARK  163  A    between atoms: _415  and  _416
REMARK  164  A    between atoms: _419  and  _421
REMARK  165  A    between atoms: _421  and  _422
REMARK  166  A    between atoms: _421  and  _424
REMARK  167  A    between atoms: _424  and  _425
REMARK  168  A    between atoms: _431  and  _433
REMARK  169  A    between atoms: _433  and  _434
REMARK  170  A    between atoms: _433  and  _436
REMARK  171  A    between atoms: _436  and  _437
REMARK  172  A    between atoms: _443  and  _445
REMARK  173  A    between atoms: _445  and  _446
REMARK  174  A    between atoms: _445  and  _448
REMARK  175  A    between atoms: _448  and  _449
REMARK  176  A    between atoms: _449  and  _450
REMARK  177  A    between atoms: _453  and  _455
REMARK  178  A    between atoms: _455  and  _456
REMARK  179  A    between atoms: _455  and  _458
REMARK  180  A    between atoms: _458  and  _459
REMARK  181  A    between atoms: _465  and  _467
REMARK  182  A    between atoms: _467  and  _468
REMARK  183  A    between atoms: _470  and  _472
REMARK  184  A    between atoms: _472  and  _473
REMARK  185  A    between atoms: _475  and  _477
REMARK  186  A    between atoms: _477  and  _478
REMARK  187  A    between atoms: _477  and  _480
REMARK  188  A    between atoms: _483  and  _485
REMARK  189  A    between atoms: _485  and  _486
REMARK  190  A    between atoms: _485  and  _488
REMARK  191  A    between atoms: _488  and  _489
REMARK  192  A    between atoms: _489  and  _490
REMARK  193  A    between atoms: _492  and  _494
REMARK  194  A    between atoms: _494  and  _495
REMARK  195  A    between atoms: _494  and  _497
REMARK  196  A    between atoms: _497  and  _498
REMARK  197  A    between atoms: _508  and  _510
REMARK  198  A    between atoms: _510  and  _511
REMARK  199  A    between atoms: _510  and  _513
REMARK  200  A    between atoms: _513  and  _514
REMARK  201  A    between atoms: _524  and  _526
REMARK  202  A    between atoms: _526  and  _527
REMARK  203  A    between atoms: _530  and  _532
REMARK  204  A    between atoms: _532  and  _533
REMARK  205  A    between atoms: _532  and  _535
REMARK  206  A    between atoms: _535  and  _536
REMARK  207  A    between atoms: _542  and  _544
REMARK  208  A    between atoms: _544  and  _545
REMARK  209  A    between atoms: _544  and  _547
REMARK  210  A    between atoms: _550  and  _552
REMARK  211  A    between atoms: _552  and  _553
REMARK  212  A    between atoms: _552  and  _555
REMARK  213  A    between atoms: _555  and  _556
REMARK  214  A    between atoms: _556  and  _557
REMARK  215  A    between atoms: _560  and  _562
REMARK  216  A    between atoms: _562  and  _563
REMARK  217  A    between atoms: _562  and  _565
REMARK  218  A    between atoms: _565  and  _566
REMARK  219  A    between atoms: _569  and  _571
REMARK  220  A    between atoms: _571  and  _572
REMARK  221  A    between atoms: _571  and  _574
REMARK  222  A    between atoms: _574  and  _575
REMARK  223  A    between atoms: _580  and  _581
REMARK  224  A    between atoms: _583  and  _585
REMARK  225  A    between atoms: _585  and  _586
REMARK  226  A    between atoms: _589  and  _590
REMARK                            x       y       z     vdW  Elec       q    Type
REMARK                         _______ _______ _______ _____ _____    ______ ____
ROOT
ATOM      1  O   HOH     1      15.355   3.197  -9.456  0.00  0.00    +0.000 OA
ENDROOT
TORSDOF 0
REMARK  Name = ../refined-set-2016/4lvt/4lvt_pocket.pdb
REMARK  226 active torsions:
REMARK  status: ('A' for Active; 'I' for Inactive)
REMARK    1  A    between atoms: _1  and  _3
REMARK    2  A    between atoms: _3  and  _4
REMARK    3  A    between atoms: _3  and  _6
REMARK    4  A    between atoms: _6  and  _7
REMARK    5  A    between atoms: _12  and  _13
REMARK    6  A    between atoms: _15  and  _17
REMARK    7  A    between atoms: _17  and  _18
REMARK    8  A    between atoms: _17  and  _20
REMARK    9  A    between atoms: _20  and  _21
REMARK   10  A    between atoms: _24  and  _26
REMARK   11  A    between atoms: _26  and  _27
REMARK   12  A    between atoms: _26  and  _29
REMARK   13  A    between atoms: _29  and  _30
REMARK   14  A    between atoms: _33  and  _35
REMARK   15  A    between atoms: _35  and  _36
REMARK   16  A    between atoms: _35  and  _38
REMARK   17  A    between atoms: _38  and  _39
REMARK   18  A    between atoms: _39  and  _40
REMARK   19  A    between atoms: _45  and  _47
REMARK   20  A    between atoms: _47  and  _48
REMARK   21  A    between atoms: _51  and  _53
REMARK   22  A    between atoms: _53  and  _54
REMARK   23  A    between atoms: _56  and  _58
REMARK   24  A    between atoms: _58  and  _59
REMARK   25  A    between atoms: _58  and  _61
REMARK   26  A    between atoms: _61  and  _62
REMARK   27  A    between atoms: _65  and  _67
REMARK   28  A    between atoms: _67  and  _68
REMARK   29  A    between atoms: _67  and  _70
REMARK   30  A    between atoms: _70  and  _71
REMARK   31  A    between atoms: _74  and  _76
REMARK   32  A    between atoms: _76  and  _77
REMARK   33  A    between atoms: _76  and  _79
REMARK   34  A    between atoms: _79  and  _80
REMARK   35  A    between atoms: _86  and  _88
REMARK   36  A    between atoms: _88  and  _89
REMARK   37  A    between atoms: _88  and  _91
REMARK   38  A    between atoms: _91  and  _92
REMARK   39  A    between atoms: _94  and  _96
REMARK   40  A    between atoms: _96  and  _97
REMARK   41  A    between atoms: _96  and  _99
REMARK   42  A    between atoms: _99  and  _100
REMARK   43  A    between atoms: _100  and  _101
REMARK   44  A    between atoms: _101  and  _102
REMARK   45  A    between atoms: _111  and  _113
REMARK   46  A    between atoms: _113  and  _114
REMARK   47  A    between atoms: _113  and  _116
REMARK   48  A    between atoms: _116  and  _117
REMARK   49  A    between atoms: _117  and  _118
REMARK   50  A    between atoms: _118  and  _119
REMARK   51  A    between atoms: _128  and  _130
REMARK   52  A    between atoms: _130  and  _131
REMARK   53  A    between atoms: _130  and  _133
REMARK   54  A    between atoms: _133  and  _134
REMARK   55  A    between atoms: _139  and  _140
REMARK   56  A    between atoms: _142  and  _144
REMARK   57  A    between atoms: _144  and  _145
REMARK   58  A    between atoms: _144  and  _147
REMARK   59  A    between atoms: _147  and  _148
REMARK   60  A    between atoms: _148  and  _149
REMARK   61  A    between atoms: _149  and  _150
REMARK   62  A    between atoms: _159  and  _161
REMARK   63  A    between atoms: _161  and  _162
REMARK   64  A    between atoms: _161  and  _164
REMARK   65  A    between atoms: _164  and  _165
REMARK   66  A    between atoms: _165  and  _166
REMARK   67  A    between atoms: _166  and  _167
REMARK   68  A    between atoms: _176  and  _178
REMARK   69  A    between atoms: _178  and  _179
REMARK   70  A    between atoms: _178  and  _181
REMARK   71  A    between atoms: _181  and  _182
REMARK   72  A    between atoms: _185  and  _187
REMARK   73  A    between atoms: _187  and  _188
REMARK   74  A    between atoms: _187  and  _190
REMARK   75  A    between atoms: _190  and  _191
REMARK   76  A    between atoms: _197  and  _199
REMARK   77  A    between atoms: _199  and  _200
REMARK   78  A    between atoms: _203  and  _205
REMARK   79  A    between atoms: _205  and  _206
REMARK   80  A    between atoms: _205  and  _208
REMARK   81  A    between atoms: _208  and  _209
REMARK   82  A    between atoms: _209  and  _210
REMARK   83  A    between atoms: _213  and  _215
REMARK   84  A    between atoms: _215  and  _216
REMARK   85  A    between atoms: _215  and  _218
REMARK   86  A    between atoms: _218  and  _219
REMARK   87  A    between atoms: _219  and  _220
REMARK   88  A    between atoms: _222  and  _224
REMARK   89  A    between atoms: _224  and  _225
REMARK   90  A    between atoms: _224  and  _227
REMARK   91  A    between atoms: _227  and  _228
REMARK   92  A    between atoms: _230  and  _232
REMARK   93  A    between atoms: _232  and  _233
REMARK   94  A    between atoms: _232  and  _235
REMARK   95  A    between atoms: _235  and  _236
REMARK   96  A    between atoms: _236  and  _237
REMARK   97  A    between atoms: _237  and  _238
REMARK   98  A    between atoms: _247  and  _249
REMARK   99  A    between atoms: _249  and  _250
REMARK  100  A    between atoms: _249  and  _252
REMARK  101  A    between atoms: _252  and  _253
REMARK  102  A    between atoms: _256  and  _258
REMARK  103  A    between atoms: _258  and  _259
REMARK  104  A    between atoms: _258  and  _261
REMARK  105  A    between atoms: _264  and  _266
REMARK  106  A    between atoms: _266  and  _267
REMARK  107  A    between atoms: _266  and  _269
REMARK  108  A    between atoms: _272  and  _274
REMARK  109  A    between atoms: _274  and  _275
REMARK  110  A    between atoms: _274  and  _277
REMARK  111  A    between atoms: _277  and  _278
REMARK  112  A    between atoms: _278  and  _279
REMARK  113  A    between atoms: _282  and  _284
REMARK  114  A    between atoms: _284  and  _285
REMARK  115  A    between atoms: _284  and  _287
REMARK  116  A    between atoms: _287  and  _288
REMARK  117  A    between atoms: _288  and  _289
REMARK  118  A    between atoms: _292  and  _294
REMARK  119  A    between atoms: _294  and  _295
REMARK  120  A    between atoms: _294  and  _297
REMARK  121  A    between atoms: _297  and  _298
REMARK  122  A    between atoms: _301  and  _303
REMARK  123  A    between atoms: _303  and  _304
REMARK  124  A    between atoms: _303  and  _306
REMARK  125  A    between atoms: _306  and  _307
REMARK  126  A    between atoms: _313  and  _315
REMARK  127  A    between atoms: _315  and  _316
REMARK  128  A    between atoms: _315  and  _318
REMARK  129  A    between atoms: _318  and  _319
REMARK  130  A    between atoms: _319  and  _320
REMARK  131  A    between atoms: _320  and  _321
REMARK  132  A    between atoms: _330  and  _332
REMARK  133  A    between atoms: _332  and  _333
REMARK  134  A    between atoms: _332  and  _335
REMARK  135  A    between atoms: _335  and  _336
REMARK  136  A    between atoms: _339  and  _341
REMARK  137  A    between atoms: _341  and  _342
REMARK  138  A    between atoms: _341  and  _344
REMARK  139  A    between atoms: _347  and  _349
REMARK  140  A    between atoms: _349  and  _350
REMARK  141  A    between atoms: _349  and  _352
REMARK  142  A    between atoms: _352  and  _353
REMARK  143  A    between atoms: _358  and  _360
REMARK  144  A    between atoms: _360  and  _361
REMARK  145  A    between atoms: _360  and  _363
REMARK  146  A    between atoms: _363  and  _364
REMARK  147  A    between atoms: _374  and  _376
REMARK  148  A    between atoms: _376  and  _377
REMARK  149  A    between atoms: _379  and  _381
REMARK  150  A    between atoms: _381  and  _382
REMARK  151  A    between atoms: _381  and  _384
REMARK  152  A    between atoms: _384  and  _385
REMARK  153  A    between atoms: _385  and  _386
REMARK  154  A    between atoms: _386  and  _387
REMARK  155  A    between atoms: _396  and  _398
REMARK  156  A    between atoms: _398  and  _399
REMARK  157  A    between atoms: _398  and  _401
REMARK  158  A    between atoms: _401  and  _402
REMARK  159  A    between atoms: _405  and  _407
REMARK  160  A    between atoms: _407  and  _408
REMARK  161  A    between atoms: _407  and  _410
REMARK  162  A    between atoms: _413  and  _415
REMARK  163  A    between atoms: _415  and  _416
REMARK  164  A    between atoms: _419  and  _421
REMARK  165  A    between atoms: _421  and  _422
REMARK  166  A    between atoms: _421  and  _424
REMARK  167  A    between atoms: _424  and  _425
REMARK  168  A    between atoms: _431  and  _433
REMARK  169  A    between atoms: _433  and  _434
REMARK  170  A    between atoms: _433  and  _436
REMARK  171  A    between atoms: _436  and  _437
REMARK  172  A    between atoms: _443  and  _445
REMARK  173  A    between atoms: _445  and  _446
REMARK  174  A    between atoms: _445  and  _448
REMARK  175  A    between atoms: _448  and  _449
REMARK  176  A    between atoms: _449  and  _450
REMARK  177  A    between atoms: _453  and  _455
REMARK  178  A    between atoms: _455  and  _456
REMARK  179  A    between atoms: _455  and  _458
REMARK  180  A    between atoms: _458  and  _459
REMARK  181  A    between atoms: _465  and  _467
REMARK  182  A    between atoms: _467  and  _468
REMARK  183  A    between atoms: _470  and  _472
REMARK  184  A    between atoms: _472  and  _473
REMARK  185  A    between atoms: _475  and  _477
REMARK  186  A    between atoms: _477  and  _478
REMARK  187  A    between atoms: _477  and  _480
REMARK  188  A    between atoms: _483  and  _485
REMARK  189  A    between atoms: _485  and  _486
REMARK  190  A    between atoms: _485  and  _488
REMARK  191  A    between atoms: _488  and  _489
REMARK  192  A    between atoms: _489  and  _490
REMARK  193  A    between atoms: _492  and  _494
REMARK  194  A    between atoms: _494  and  _495
REMARK  195  A    between atoms: _494  and  _497
REMARK  196  A    between atoms: _497  and  _498
REMARK  197  A    between atoms: _508  and  _510
REMARK  198  A    between atoms: _510  and  _511
REMARK  199  A    between atoms: _510  and  _513
REMARK  200  A    between atoms: _513  and  _514
REMARK  201  A    between atoms: _524  and  _526
REMARK  202  A    between atoms: _526  and  _527
REMARK  203  A    between atoms: _530  and  _532
REMARK  204  A    between atoms: _532  and  _533
REMARK  205  A    between atoms: _532  and  _535
REMARK  206  A    between atoms: _535  and  _536
REMARK  207  A    between atoms: _542  and  _544
REMARK  208  A    between atoms: _544  and  _545
REMARK  209  A    between atoms: _544  and  _547
REMARK  210  A    between atoms: _550  and  _552
REMARK  211  A    between atoms: _552  and  _553
REMARK  212  A    between atoms: _552  and  _555
REMARK  213  A    between atoms: _555  and  _556
REMARK  214  A    between atoms: _556  and  _557
REMARK  215  A    between atoms: _560  and  _562
REMARK  216  A    between atoms: _562  and  _563
REMARK  217  A    between atoms: _562  and  _565
REMARK  218  A    between atoms: _565  and  _566
REMARK  219  A    between atoms: _569  and  _571
REMARK  220  A    between atoms: _571  and  _572
REMARK  221  A    between atoms: _571  and  _574
REMARK  222  A    between atoms: _574  and  _575
REMARK  223  A    between atoms: _580  and  _581
REMARK  224  A    between atoms: _583  and  _585
REMARK  225  A    between atoms: _585  and  _586
REMARK  226  A    between atoms: _589  and  _590
REMARK                            x       y       z     vdW  Elec       q    Type
REMARK                         _______ _______ _______ _____ _____    ______ ____
ROOT
ATOM      1  O   HOH     1      -0.553  -5.678 -11.609  0.00  0.00    +0.000 OA
ENDROOT
TORSDOF 0
REMARK  Name = ../refined-set-2016/4lvt/4lvt_pocket.pdb
REMARK  226 active torsions:
REMARK  status: ('A' for Active; 'I' for Inactive)
REMARK    1  A    between atoms: _1  and  _3
REMARK    2  A    between atoms: _3  and  _4
REMARK    3  A    between atoms: _3  and  _6
REMARK    4  A    between atoms: _6  and  _7
REMARK    5  A    between atoms: _12  and  _13
REMARK    6  A    between atoms: _15  and  _17
REMARK    7  A    between atoms: _17  and  _18
REMARK    8  A    between atoms: _17  and  _20
REMARK    9  A    between atoms: _20  and  _21
REMARK   10  A    between atoms: _24  and  _26
REMARK   11  A    between atoms: _26  and  _27
REMARK   12  A    between atoms: _26  and  _29
REMARK   13  A    between atoms: _29  and  _30
REMARK   14  A    between atoms: _33  and  _35
REMARK   15  A    between atoms: _35  and  _36
REMARK   16  A    between atoms: _35  and  _38
REMARK   17  A    between atoms: _38  and  _39
REMARK   18  A    between atoms: _39  and  _40
REMARK   19  A    between atoms: _45  and  _47
REMARK   20  A    between atoms: _47  and  _48
REMARK   21  A    between atoms: _51  and  _53
REMARK   22  A    between atoms: _53  and  _54
REMARK   23  A    between atoms: _56  and  _58
REMARK   24  A    between atoms: _58  and  _59
REMARK   25  A    between atoms: _58  and  _61
REMARK   26  A    between atoms: _61  and  _62
REMARK   27  A    between atoms: _65  and  _67
REMARK   28  A    between atoms: _67  and  _68
REMARK   29  A    between atoms: _67  and  _70
REMARK   30  A    between atoms: _70  and  _71
REMARK   31  A    between atoms: _74  and  _76
REMARK   32  A    between atoms: _76  and  _77
REMARK   33  A    between atoms: _76  and  _79
REMARK   34  A    between atoms: _79  and  _80
REMARK   35  A    between atoms: _86  and  _88
REMARK   36  A    between atoms: _88  and  _89
REMARK   37  A    between atoms: _88  and  _91
REMARK   38  A    between atoms: _91  and  _92
REMARK   39  A    between atoms: _94  and  _96
REMARK   40  A    between atoms: _96  and  _97
REMARK   41  A    between atoms: _96  and  _99
REMARK   42  A    between atoms: _99  and  _100
REMARK   43  A    between atoms: _100  and  _101
REMARK   44  A    between atoms: _101  and  _102
REMARK   45  A    between atoms: _111  and  _113
REMARK   46  A    between atoms: _113  and  _114
REMARK   47  A    between atoms: _113  and  _116
REMARK   48  A    between atoms: _116  and  _117
REMARK   49  A    between atoms: _117  and  _118
REMARK   50  A    between atoms: _118  and  _119
REMARK   51  A    between atoms: _128  and  _130
REMARK   52  A    between atoms: _130  and  _131
REMARK   53  A    between atoms: _130  and  _133
REMARK   54  A    between atoms: _133  and  _134
REMARK   55  A    between atoms: _139  and  _140
REMARK   56  A    between atoms: _142  and  _144
REMARK   57  A    between atoms: _144  and  _145
REMARK   58  A    between atoms: _144  and  _147
REMARK   59  A    between atoms: _147  and  _148
REMARK   60  A    between atoms: _148  and  _149
REMARK   61  A    between atoms: _149  and  _150
REMARK   62  A    between atoms: _159  and  _161
REMARK   63  A    between atoms: _161  and  _162
REMARK   64  A    between atoms: _161  and  _164
REMARK   65  A    between atoms: _164  and  _165
REMARK   66  A    between atoms: _165  and  _166
REMARK   67  A    between atoms: _166  and  _167
REMARK   68  A    between atoms: _176  and  _178
REMARK   69  A    between atoms: _178  and  _179
REMARK   70  A    between atoms: _178  and  _181
REMARK   71  A    between atoms: _181  and  _182
REMARK   72  A    between atoms: _185  and  _187
REMARK   73  A    between atoms: _187  and  _188
REMARK   74  A    between atoms: _187  and  _190
REMARK   75  A    between atoms: _190  and  _191
REMARK   76  A    between atoms: _197  and  _199
REMARK   77  A    between atoms: _199  and  _200
REMARK   78  A    between atoms: _203  and  _205
REMARK   79  A    between atoms: _205  and  _206
REMARK   80  A    between atoms: _205  and  _208
REMARK   81  A    between atoms: _208  and  _209
REMARK   82  A    between atoms: _209  and  _210
REMARK   83  A    between atoms: _213  and  _215
REMARK   84  A    between atoms: _215  and  _216
REMARK   85  A    between atoms: _215  and  _218
REMARK   86  A    between atoms: _218  and  _219
REMARK   87  A    between atoms: _219  and  _220
REMARK   88  A    between atoms: _222  and  _224
REMARK   89  A    between atoms: _224  and  _225
REMARK   90  A    between atoms: _224  and  _227
REMARK   91  A    between atoms: _227  and  _228
REMARK   92  A    between atoms: _230  and  _232
REMARK   93  A    between atoms: _232  and  _233
REMARK   94  A    between atoms: _232  and  _235
REMARK   95  A    between atoms: _235  and  _236
REMARK   96  A    between atoms: _236  and  _237
REMARK   97  A    between atoms: _237  and  _238
REMARK   98  A    between atoms: _247  and  _249
REMARK   99  A    between atoms: _249  and  _250
REMARK  100  A    between atoms: _249  and  _252
REMARK  101  A    between atoms: _252  and  _253
REMARK  102  A    between atoms: _256  and  _258
REMARK  103  A    between atoms: _258  and  _259
REMARK  104  A    between atoms: _258  and  _261
REMARK  105  A    between atoms: _264  and  _266
REMARK  106  A    between atoms: _266  and  _267
REMARK  107  A    between atoms: _266  and  _269
REMARK  108  A    between atoms: _272  and  _274
REMARK  109  A    between atoms: _274  and  _275
REMARK  110  A    between atoms: _274  and  _277
REMARK  111  A    between atoms: _277  and  _278
REMARK  112  A    between atoms: _278  and  _279
REMARK  113  A    between atoms: _282  and  _284
REMARK  114  A    between atoms: _284  and  _285
REMARK  115  A    between atoms: _284  and  _287
REMARK  116  A    between atoms: _287  and  _288
REMARK  117  A    between atoms: _288  and  _289
REMARK  118  A    between atoms: _292  and  _294
REMARK  119  A    between atoms: _294  and  _295
REMARK  120  A    between atoms: _294  and  _297
REMARK  121  A    between atoms: _297  and  _298
REMARK  122  A    between atoms: _301  and  _303
REMARK  123  A    between atoms: _303  and  _304
REMARK  124  A    between atoms: _303  and  _306
REMARK  125  A    between atoms: _306  and  _307
REMARK  126  A    between atoms: _313  and  _315
REMARK  127  A    between atoms: _315  and  _316
REMARK  128  A    between atoms: _315  and  _318
REMARK  129  A    between atoms: _318  and  _319
REMARK  130  A    between atoms: _319  and  _320
REMARK  131  A    between atoms: _320  and  _321
REMARK  132  A    between atoms: _330  and  _332
REMARK  133  A    between atoms: _332  and  _333
REMARK  134  A    between atoms: _332  and  _335
REMARK  135  A    between atoms: _335  and  _336
REMARK  136  A    between atoms: _339  and  _341
REMARK  137  A    between atoms: _341  and  _342
REMARK  138  A    between atoms: _341  and  _344
REMARK  139  A    between atoms: _347  and  _349
REMARK  140  A    between atoms: _349  and  _350
REMARK  141  A    between atoms: _349  and  _352
REMARK  142  A    between atoms: _352  and  _353
REMARK  143  A    between atoms: _358  and  _360
REMARK  144  A    between atoms: _360  and  _361
REMARK  145  A    between atoms: _360  and  _363
REMARK  146  A    between atoms: _363  and  _364
REMARK  147  A    between atoms: _374  and  _376
REMARK  148  A    between atoms: _376  and  _377
REMARK  149  A    between atoms: _379  and  _381
REMARK  150  A    between atoms: _381  and  _382
REMARK  151  A    between atoms: _381  and  _384
REMARK  152  A    between atoms: _384  and  _385
REMARK  153  A    between atoms: _385  and  _386
REMARK  154  A    between atoms: _386  and  _387
REMARK  155  A    between atoms: _396  and  _398
REMARK  156  A    between atoms: _398  and  _399
REMARK  157  A    between atoms: _398  and  _401
REMARK  158  A    between atoms: _401  and  _402
REMARK  159  A    between atoms: _405  and  _407
REMARK  160  A    between atoms: _407  and  _408
REMARK  161  A    between atoms: _407  and  _410
REMARK  162  A    between atoms: _413  and  _415
REMARK  163  A    between atoms: _415  and  _416
REMARK  164  A    between atoms: _419  and  _421
REMARK  165  A    between atoms: _421  and  _422
REMARK  166  A    between atoms: _421  and  _424
REMARK  167  A    between atoms: _424  and  _425
REMARK  168  A    between atoms: _431  and  _433
REMARK  169  A    between atoms: _433  and  _434
REMARK  170  A    between atoms: _433  and  _436
REMARK  171  A    between atoms: _436  and  _437
REMARK  172  A    between atoms: _443  and  _445
REMARK  173  A    between atoms: _445  and  _446
REMARK  174  A    between atoms: _445  and  _448
REMARK  175  A    between atoms: _448  and  _449
REMARK  176  A    between atoms: _449  and  _450
REMARK  177  A    between atoms: _453  and  _455
REMARK  178  A    between atoms: _455  and  _456
REMARK  179  A    between atoms: _455  and  _458
REMARK  180  A    between atoms: _458  and  _459
REMARK  181  A    between atoms: _465  and  _467
REMARK  182  A    between atoms: _467  and  _468
REMARK  183  A    between atoms: _470  and  _472
REMARK  184  A    between atoms: _472  and  _473
REMARK  185  A    between atoms: _475  and  _477
REMARK  186  A    between atoms: _477  and  _478
REMARK  187  A    between atoms: _477  and  _480
REMARK  188  A    between atoms: _483  and  _485
REMARK  189  A    between atoms: _485  and  _486
REMARK  190  A    between atoms: _485  and  _488
REMARK  191  A    between atoms: _488  and  _489
REMARK  192  A    between atoms: _489  and  _490
REMARK  193  A    between atoms: _492  and  _494
REMARK  194  A    between atoms: _494  and  _495
REMARK  195  A    between atoms: _494  and  _497
REMARK  196  A    between atoms: _497  and  _498
REMARK  197  A    between atoms: _508  and  _510
REMARK  198  A    between atoms: _510  and  _511
REMARK  199  A    between atoms: _510  and  _513
REMARK  200  A    between atoms: _513  and  _514
REMARK  201  A    between atoms: _524  and  _526
REMARK  202  A    between atoms: _526  and  _527
REMARK  203  A    between atoms: _530  and  _532
REMARK  204  A    between atoms: _532  and  _533
REMARK  205  A    between atoms: _532  and  _535
REMARK  206  A    between atoms: _535  and  _536
REMARK  207  A    between atoms: _542  and  _544
REMARK  208  A    between atoms: _544  and  _545
REMARK  209  A    between atoms: _544  and  _547
REMARK  210  A    between atoms: _550  and  _552
REMARK  211  A    between atoms: _552  and  _553
REMARK  212  A    between atoms: _552  and  _555
REMARK  213  A    between atoms: _555  and  _556
REMARK  214  A    between atoms: _556  and  _557
REMARK  215  A    between atoms: _560  and  _562
REMARK  216  A    between atoms: _562  and  _563
REMARK  217  A    between atoms: _562  and  _565
REMARK  218  A    between atoms: _565  and  _566
REMARK  219  A    between atoms: _569  and  _571
REMARK  220  A    between atoms: _571  and  _572
REMARK  221  A    between atoms: _571  and  _574
REMARK  222  A    between atoms: _574  and  _575
REMARK  223  A    between atoms: _580  and  _581
REMARK  224  A    between atoms: _583  and  _585
REMARK  225  A    between atoms: _585  and  _586
REMARK  226  A    between atoms: _589  and  _590
REMARK                            x       y       z     vdW  Elec       q    Type
REMARK                         _______ _______ _______ _____ _____    ______ ____
ROOT
ATOM      1  O   HOH     1       3.930  -9.256 -13.468  0.00  0.00    +0.000 OA
ENDROOT
TORSDOF 0
REMARK  Name = ../refined-set-2016/4lvt/4lvt_pocket.pdb
REMARK  226 active torsions:
REMARK  status: ('A' for Active; 'I' for Inactive)
REMARK    1  A    between atoms: _1  and  _3
REMARK    2  A    between atoms: _3  and  _4
REMARK    3  A    between atoms: _3  and  _6
REMARK    4  A    between atoms: _6  and  _7
REMARK    5  A    between atoms: _12  and  _13
REMARK    6  A    between atoms: _15  and  _17
REMARK    7  A    between atoms: _17  and  _18
REMARK    8  A    between atoms: _17  and  _20
REMARK    9  A    between atoms: _20  and  _21
REMARK   10  A    between atoms: _24  and  _26
REMARK   11  A    between atoms: _26  and  _27
REMARK   12  A    between atoms: _26  and  _29
REMARK   13  A    between atoms: _29  and  _30
REMARK   14  A    between atoms: _33  and  _35
REMARK   15  A    between atoms: _35  and  _36
REMARK   16  A    between atoms: _35  and  _38
REMARK   17  A    between atoms: _38  and  _39
REMARK   18  A    between atoms: _39  and  _40
REMARK   19  A    between atoms: _45  and  _47
REMARK   20  A    between atoms: _47  and  _48
REMARK   21  A    between atoms: _51  and  _53
REMARK   22  A    between atoms: _53  and  _54
REMARK   23  A    between atoms: _56  and  _58
REMARK   24  A    between atoms: _58  and  _59
REMARK   25  A    between atoms: _58  and  _61
REMARK   26  A    between atoms: _61  and  _62
REMARK   27  A    between atoms: _65  and  _67
REMARK   28  A    between atoms: _67  and  _68
REMARK   29  A    between atoms: _67  and  _70
REMARK   30  A    between atoms: _70  and  _71
REMARK   31  A    between atoms: _74  and  _76
REMARK   32  A    between atoms: _76  and  _77
REMARK   33  A    between atoms: _76  and  _79
REMARK   34  A    between atoms: _79  and  _80
REMARK   35  A    between atoms: _86  and  _88
REMARK   36  A    between atoms: _88  and  _89
REMARK   37  A    between atoms: _88  and  _91
REMARK   38  A    between atoms: _91  and  _92
REMARK   39  A    between atoms: _94  and  _96
REMARK   40  A    between atoms: _96  and  _97
REMARK   41  A    between atoms: _96  and  _99
REMARK   42  A    between atoms: _99  and  _100
REMARK   43  A    between atoms: _100  and  _101
REMARK   44  A    between atoms: _101  and  _102
REMARK   45  A    between atoms: _111  and  _113
REMARK   46  A    between atoms: _113  and  _114
REMARK   47  A    between atoms: _113  and  _116
REMARK   48  A    between atoms: _116  and  _117
REMARK   49  A    between atoms: _117  and  _118
REMARK   50  A    between atoms: _118  and  _119
REMARK   51  A    between atoms: _128  and  _130
REMARK   52  A    between atoms: _130  and  _131
REMARK   53  A    between atoms: _130  and  _133
REMARK   54  A    between atoms: _133  and  _134
REMARK   55  A    between atoms: _139  and  _140
REMARK   56  A    between atoms: _142  and  _144
REMARK   57  A    between atoms: _144  and  _145
REMARK   58  A    between atoms: _144  and  _147
REMARK   59  A    between atoms: _147  and  _148
REMARK   60  A    between atoms: _148  and  _149
REMARK   61  A    between atoms: _149  and  _150
REMARK   62  A    between atoms: _159  and  _161
REMARK   63  A    between atoms: _161  and  _162
REMARK   64  A    between atoms: _161  and  _164
REMARK   65  A    between atoms: _164  and  _165
REMARK   66  A    between atoms: _165  and  _166
REMARK   67  A    between atoms: _166  and  _167
REMARK   68  A    between atoms: _176  and  _178
REMARK   69  A    between atoms: _178  and  _179
REMARK   70  A    between atoms: _178  and  _181
REMARK   71  A    between atoms: _181  and  _182
REMARK   72  A    between atoms: _185  and  _187
REMARK   73  A    between atoms: _187  and  _188
REMARK   74  A    between atoms: _187  and  _190
REMARK   75  A    between atoms: _190  and  _191
REMARK   76  A    between atoms: _197  and  _199
REMARK   77  A    between atoms: _199  and  _200
REMARK   78  A    between atoms: _203  and  _205
REMARK   79  A    between atoms: _205  and  _206
REMARK   80  A    between atoms: _205  and  _208
REMARK   81  A    between atoms: _208  and  _209
REMARK   82  A    between atoms: _209  and  _210
REMARK   83  A    between atoms: _213  and  _215
REMARK   84  A    between atoms: _215  and  _216
REMARK   85  A    between atoms: _215  and  _218
REMARK   86  A    between atoms: _218  and  _219
REMARK   87  A    between atoms: _219  and  _220
REMARK   88  A    between atoms: _222  and  _224
REMARK   89  A    between atoms: _224  and  _225
REMARK   90  A    between atoms: _224  and  _227
REMARK   91  A    between atoms: _227  and  _228
REMARK   92  A    between atoms: _230  and  _232
REMARK   93  A    between atoms: _232  and  _233
REMARK   94  A    between atoms: _232  and  _235
REMARK   95  A    between atoms: _235  and  _236
REMARK   96  A    between atoms: _236  and  _237
REMARK   97  A    between atoms: _237  and  _238
REMARK   98  A    between atoms: _247  and  _249
REMARK   99  A    between atoms: _249  and  _250
REMARK  100  A    between atoms: _249  and  _252
REMARK  101  A    between atoms: _252  and  _253
REMARK  102  A    between atoms: _256  and  _258
REMARK  103  A    between atoms: _258  and  _259
REMARK  104  A    between atoms: _258  and  _261
REMARK  105  A    between atoms: _264  and  _266
REMARK  106  A    between atoms: _266  and  _267
REMARK  107  A    between atoms: _266  and  _269
REMARK  108  A    between atoms: _272  and  _274
REMARK  109  A    between atoms: _274  and  _275
REMARK  110  A    between atoms: _274  and  _277
REMARK  111  A    between atoms: _277  and  _278
REMARK  112  A    between atoms: _278  and  _279
REMARK  113  A    between atoms: _282  and  _284
REMARK  114  A    between atoms: _284  and  _285
REMARK  115  A    between atoms: _284  and  _287
REMARK  116  A    between atoms: _287  and  _288
REMARK  117  A    between atoms: _288  and  _289
REMARK  118  A    between atoms: _292  and  _294
REMARK  119  A    between atoms: _294  and  _295
REMARK  120  A    between atoms: _294  and  _297
REMARK  121  A    between atoms: _297  and  _298
REMARK  122  A    between atoms: _301  and  _303
REMARK  123  A    between atoms: _303  and  _304
REMARK  124  A    between atoms: _303  and  _306
REMARK  125  A    between atoms: _306  and  _307
REMARK  126  A    between atoms: _313  and  _315
REMARK  127  A    between atoms: _315  and  _316
REMARK  128  A    between atoms: _315  and  _318
REMARK  129  A    between atoms: _318  and  _319
REMARK  130  A    between atoms: _319  and  _320
REMARK  131  A    between atoms: _320  and  _321
REMARK  132  A    between atoms: _330  and  _332
REMARK  133  A    between atoms: _332  and  _333
REMARK  134  A    between atoms: _332  and  _335
REMARK  135  A    between atoms: _335  and  _336
REMARK  136  A    between atoms: _339  and  _341
REMARK  137  A    between atoms: _341  and  _342
REMARK  138  A    between atoms: _341  and  _344
REMARK  139  A    between atoms: _347  and  _349
REMARK  140  A    between atoms: _349  and  _350
REMARK  141  A    between atoms: _349  and  _352
REMARK  142  A    between atoms: _352  and  _353
REMARK  143  A    between atoms: _358  and  _360
REMARK  144  A    between atoms: _360  and  _361
REMARK  145  A    between atoms: _360  and  _363
REMARK  146  A    between atoms: _363  and  _364
REMARK  147  A    between atoms: _374  and  _376
REMARK  148  A    between atoms: _376  and  _377
REMARK  149  A    between atoms: _379  and  _381
REMARK  150  A    between atoms: _381  and  _382
REMARK  151  A    between atoms: _381  and  _384
REMARK  152  A    between atoms: _384  and  _385
REMARK  153  A    between atoms: _385  and  _386
REMARK  154  A    between atoms: _386  and  _387
REMARK  155  A    between atoms: _396  and  _398
REMARK  156  A    between atoms: _398  and  _399
REMARK  157  A    between atoms: _398  and  _401
REMARK  158  A    between atoms: _401  and  _402
REMARK  159  A    between atoms: _405  and  _407
REMARK  160  A    between atoms: _407  and  _408
REMARK  161  A    between atoms: _407  and  _410
REMARK  162  A    between atoms: _413  and  _415
REMARK  163  A    between atoms: _415  and  _416
REMARK  164  A    between atoms: _419  and  _421
REMARK  165  A    between atoms: _421  and  _422
REMARK  166  A    between atoms: _421  and  _424
REMARK  167  A    between atoms: _424  and  _425
REMARK  168  A    between atoms: _431  and  _433
REMARK  169  A    between atoms: _433  and  _434
REMARK  170  A    between atoms: _433  and  _436
REMARK  171  A    between atoms: _436  and  _437
REMARK  172  A    between atoms: _443  and  _445
REMARK  173  A    between atoms: _445  and  _446
REMARK  174  A    between atoms: _445  and  _448
REMARK  175  A    between atoms: _448  and  _449
REMARK  176  A    between atoms: _449  and  _450
REMARK  177  A    between atoms: _453  and  _455
REMARK  178  A    between atoms: _455  and  _456
REMARK  179  A    between atoms: _455  and  _458
REMARK  180  A    between atoms: _458  and  _459
REMARK  181  A    between atoms: _465  and  _467
REMARK  182  A    between atoms: _467  and  _468
REMARK  183  A    between atoms: _470  and  _472
REMARK  184  A    between atoms: _472  and  _473
REMARK  185  A    between atoms: _475  and  _477
REMARK  186  A    between atoms: _477  and  _478
REMARK  187  A    between atoms: _477  and  _480
REMARK  188  A    between atoms: _483  and  _485
REMARK  189  A    between atoms: _485  and  _486
REMARK  190  A    between atoms: _485  and  _488
REMARK  191  A    between atoms: _488  and  _489
REMARK  192  A    between atoms: _489  and  _490
REMARK  193  A    between atoms: _492  and  _494
REMARK  194  A    between atoms: _494  and  _495
REMARK  195  A    between atoms: _494  and  _497
REMARK  196  A    between atoms: _497  and  _498
REMARK  197  A    between atoms: _508  and  _510
REMARK  198  A    between atoms: _510  and  _511
REMARK  199  A    between atoms: _510  and  _513
REMARK  200  A    between atoms: _513  and  _514
REMARK  201  A    between atoms: _524  and  _526
REMARK  202  A    between atoms: _526  and  _527
REMARK  203  A    between atoms: _530  and  _532
REMARK  204  A    between atoms: _532  and  _533
REMARK  205  A    between atoms: _532  and  _535
REMARK  206  A    between atoms: _535  and  _536
REMARK  207  A    between atoms: _542  and  _544
REMARK  208  A    between atoms: _544  and  _545
REMARK  209  A    between atoms: _544  and  _547
REMARK  210  A    between atoms: _550  and  _552
REMARK  211  A    between atoms: _552  and  _553
REMARK  212  A    between atoms: _552  and  _555
REMARK  213  A    between atoms: _555  and  _556
REMARK  214  A    between atoms: _556  and  _557
REMARK  215  A    between atoms: _560  and  _562
REMARK  216  A    between atoms: _562  and  _563
REMARK  217  A    between atoms: _562  and  _565
REMARK  218  A    between atoms: _565  and  _566
REMARK  219  A    between atoms: _569  and  _571
REMARK  220  A    between atoms: _571  and  _572
REMARK  221  A    between atoms: _571  and  _574
REMARK  222  A    between atoms: _574  and  _575
REMARK  223  A    between atoms: _580  and  _581
REMARK  224  A    between atoms: _583  and  _585
REMARK  225  A    between atoms: _585  and  _586
REMARK  226  A    between atoms: _589  and  _590
REMARK                            x       y       z     vdW  Elec       q    Type
REMARK                         _______ _______ _______ _____ _____    ______ ____
ROOT
ATOM      1  O   HOH     1      -3.731  -9.854 -10.542  0.00  0.00    +0.000 OA
ENDROOT
TORSDOF 0
REMARK  Name = ../refined-set-2016/4lvt/4lvt_pocket.pdb
REMARK  226 active torsions:
REMARK  status: ('A' for Active; 'I' for Inactive)
REMARK    1  A    between atoms: _1  and  _3
REMARK    2  A    between atoms: _3  and  _4
REMARK    3  A    between atoms: _3  and  _6
REMARK    4  A    between atoms: _6  and  _7
REMARK    5  A    between atoms: _12  and  _13
REMARK    6  A    between atoms: _15  and  _17
REMARK    7  A    between atoms: _17  and  _18
REMARK    8  A    between atoms: _17  and  _20
REMARK    9  A    between atoms: _20  and  _21
REMARK   10  A    between atoms: _24  and  _26
REMARK   11  A    between atoms: _26  and  _27
REMARK   12  A    between atoms: _26  and  _29
REMARK   13  A    between atoms: _29  and  _30
REMARK   14  A    between atoms: _33  and  _35
REMARK   15  A    between atoms: _35  and  _36
REMARK   16  A    between atoms: _35  and  _38
REMARK   17  A    between atoms: _38  and  _39
REMARK   18  A    between atoms: _39  and  _40
REMARK   19  A    between atoms: _45  and  _47
REMARK   20  A    between atoms: _47  and  _48
REMARK   21  A    between atoms: _51  and  _53
REMARK   22  A    between atoms: _53  and  _54
REMARK   23  A    between atoms: _56  and  _58
REMARK   24  A    between atoms: _58  and  _59
REMARK   25  A    between atoms: _58  and  _61
REMARK   26  A    between atoms: _61  and  _62
REMARK   27  A    between atoms: _65  and  _67
REMARK   28  A    between atoms: _67  and  _68
REMARK   29  A    between atoms: _67  and  _70
REMARK   30  A    between atoms: _70  and  _71
REMARK   31  A    between atoms: _74  and  _76
REMARK   32  A    between atoms: _76  and  _77
REMARK   33  A    between atoms: _76  and  _79
REMARK   34  A    between atoms: _79  and  _80
REMARK   35  A    between atoms: _86  and  _88
REMARK   36  A    between atoms: _88  and  _89
REMARK   37  A    between atoms: _88  and  _91
REMARK   38  A    between atoms: _91  and  _92
REMARK   39  A    between atoms: _94  and  _96
REMARK   40  A    between atoms: _96  and  _97
REMARK   41  A    between atoms: _96  and  _99
REMARK   42  A    between atoms: _99  and  _100
REMARK   43  A    between atoms: _100  and  _101
REMARK   44  A    between atoms: _101  and  _102
REMARK   45  A    between atoms: _111  and  _113
REMARK   46  A    between atoms: _113  and  _114
REMARK   47  A    between atoms: _113  and  _116
REMARK   48  A    between atoms: _116  and  _117
REMARK   49  A    between atoms: _117  and  _118
REMARK   50  A    between atoms: _118  and  _119
REMARK   51  A    between atoms: _128  and  _130
REMARK   52  A    between atoms: _130  and  _131
REMARK   53  A    between atoms: _130  and  _133
REMARK   54  A    between atoms: _133  and  _134
REMARK   55  A    between atoms: _139  and  _140
REMARK   56  A    between atoms: _142  and  _144
REMARK   57  A    between atoms: _144  and  _145
REMARK   58  A    between atoms: _144  and  _147
REMARK   59  A    between atoms: _147  and  _148
REMARK   60  A    between atoms: _148  and  _149
REMARK   61  A    between atoms: _149  and  _150
REMARK   62  A    between atoms: _159  and  _161
REMARK   63  A    between atoms: _161  and  _162
REMARK   64  A    between atoms: _161  and  _164
REMARK   65  A    between atoms: _164  and  _165
REMARK   66  A    between atoms: _165  and  _166
REMARK   67  A    between atoms: _166  and  _167
REMARK   68  A    between atoms: _176  and  _178
REMARK   69  A    between atoms: _178  and  _179
REMARK   70  A    between atoms: _178  and  _181
REMARK   71  A    between atoms: _181  and  _182
REMARK   72  A    between atoms: _185  and  _187
REMARK   73  A    between atoms: _187  and  _188
REMARK   74  A    between atoms: _187  and  _190
REMARK   75  A    between atoms: _190  and  _191
REMARK   76  A    between atoms: _197  and  _199
REMARK   77  A    between atoms: _199  and  _200
REMARK   78  A    between atoms: _203  and  _205
REMARK   79  A    between atoms: _205  and  _206
REMARK   80  A    between atoms: _205  and  _208
REMARK   81  A    between atoms: _208  and  _209
REMARK   82  A    between atoms: _209  and  _210
REMARK   83  A    between atoms: _213  and  _215
REMARK   84  A    between atoms: _215  and  _216
REMARK   85  A    between atoms: _215  and  _218
REMARK   86  A    between atoms: _218  and  _219
REMARK   87  A    between atoms: _219  and  _220
REMARK   88  A    between atoms: _222  and  _224
REMARK   89  A    between atoms: _224  and  _225
REMARK   90  A    between atoms: _224  and  _227
REMARK   91  A    between atoms: _227  and  _228
REMARK   92  A    between atoms: _230  and  _232
REMARK   93  A    between atoms: _232  and  _233
REMARK   94  A    between atoms: _232  and  _235
REMARK   95  A    between atoms: _235  and  _236
REMARK   96  A    between atoms: _236  and  _237
REMARK   97  A    between atoms: _237  and  _238
REMARK   98  A    between atoms: _247  and  _249
REMARK   99  A    between atoms: _249  and  _250
REMARK  100  A    between atoms: _249  and  _252
REMARK  101  A    between atoms: _252  and  _253
REMARK  102  A    between atoms: _256  and  _258
REMARK  103  A    between atoms: _258  and  _259
REMARK  104  A    between atoms: _258  and  _261
REMARK  105  A    between atoms: _264  and  _266
REMARK  106  A    between atoms: _266  and  _267
REMARK  107  A    between atoms: _266  and  _269
REMARK  108  A    between atoms: _272  and  _274
REMARK  109  A    between atoms: _274  and  _275
REMARK  110  A    between atoms: _274  and  _277
REMARK  111  A    between atoms: _277  and  _278
REMARK  112  A    between atoms: _278  and  _279
REMARK  113  A    between atoms: _282  and  _284
REMARK  114  A    between atoms: _284  and  _285
REMARK  115  A    between atoms: _284  and  _287
REMARK  116  A    between atoms: _287  and  _288
REMARK  117  A    between atoms: _288  and  _289
REMARK  118  A    between atoms: _292  and  _294
REMARK  119  A    between atoms: _294  and  _295
REMARK  120  A    between atoms: _294  and  _297
REMARK  121  A    between atoms: _297  and  _298
REMARK  122  A    between atoms: _301  and  _303
REMARK  123  A    between atoms: _303  and  _304
REMARK  124  A    between atoms: _303  and  _306
REMARK  125  A    between atoms: _306  and  _307
REMARK  126  A    between atoms: _313  and  _315
REMARK  127  A    between atoms: _315  and  _316
REMARK  128  A    between atoms: _315  and  _318
REMARK  129  A    between atoms: _318  and  _319
REMARK  130  A    between atoms: _319  and  _320
REMARK  131  A    between atoms: _320  and  _321
REMARK  132  A    between atoms: _330  and  _332
REMARK  133  A    between atoms: _332  and  _333
REMARK  134  A    between atoms: _332  and  _335
REMARK  135  A    between atoms: _335  and  _336
REMARK  136  A    between atoms: _339  and  _341
REMARK  137  A    between atoms: _341  and  _342
REMARK  138  A    between atoms: _341  and  _344
REMARK  139  A    between atoms: _347  and  _349
REMARK  140  A    between atoms: _349  and  _350
REMARK  141  A    between atoms: _349  and  _352
REMARK  142  A    between atoms: _352  and  _353
REMARK  143  A    between atoms: _358  and  _360
REMARK  144  A    between atoms: _360  and  _361
REMARK  145  A    between atoms: _360  and  _363
REMARK  146  A    between atoms: _363  and  _364
REMARK  147  A    between atoms: _374  and  _376
REMARK  148  A    between atoms: _376  and  _377
REMARK  149  A    between atoms: _379  and  _381
REMARK  150  A    between atoms: _381  and  _382
REMARK  151  A    between atoms: _381  and  _384
REMARK  152  A    between atoms: _384  and  _385
REMARK  153  A    between atoms: _385  and  _386
REMARK  154  A    between atoms: _386  and  _387
REMARK  155  A    between atoms: _396  and  _398
REMARK  156  A    between atoms: _398  and  _399
REMARK  157  A    between atoms: _398  and  _401
REMARK  158  A    between atoms: _401  and  _402
REMARK  159  A    between atoms: _405  and  _407
REMARK  160  A    between atoms: _407  and  _408
REMARK  161  A    between atoms: _407  and  _410
REMARK  162  A    between atoms: _413  and  _415
REMARK  163  A    between atoms: _415  and  _416
REMARK  164  A    between atoms: _419  and  _421
REMARK  165  A    between atoms: _421  and  _422
REMARK  166  A    between atoms: _421  and  _424
REMARK  167  A    between atoms: _424  and  _425
REMARK  168  A    between atoms: _431  and  _433
REMARK  169  A    between atoms: _433  and  _434
REMARK  170  A    between atoms: _433  and  _436
REMARK  171  A    between atoms: _436  and  _437
REMARK  172  A    between atoms: _443  and  _445
REMARK  173  A    between atoms: _445  and  _446
REMARK  174  A    between atoms: _445  and  _448
REMARK  175  A    between atoms: _448  and  _449
REMARK  176  A    between atoms: _449  and  _450
REMARK  177  A    between atoms: _453  and  _455
REMARK  178  A    between atoms: _455  and  _456
REMARK  179  A    between atoms: _455  and  _458
REMARK  180  A    between atoms: _458  and  _459
REMARK  181  A    between atoms: _465  and  _467
REMARK  182  A    between atoms: _467  and  _468
REMARK  183  A    between atoms: _470  and  _472
REMARK  184  A    between atoms: _472  and  _473
REMARK  185  A    between atoms: _475  and  _477
REMARK  186  A    between atoms: _477  and  _478
REMARK  187  A    between atoms: _477  and  _480
REMARK  188  A    between atoms: _483  and  _485
REMARK  189  A    between atoms: _485  and  _486
REMARK  190  A    between atoms: _485  and  _488
REMARK  191  A    between atoms: _488  and  _489
REMARK  192  A    between atoms: _489  and  _490
REMARK  193  A    between atoms: _492  and  _494
REMARK  194  A    between atoms: _494  and  _495
REMARK  195  A    between atoms: _494  and  _497
REMARK  196  A    between atoms: _497  and  _498
REMARK  197  A    between atoms: _508  and  _510
REMARK  198  A    between atoms: _510  and  _511
REMARK  199  A    between atoms: _510  and  _513
REMARK  200  A    between atoms: _513  and  _514
REMARK  201  A    between atoms: _524  and  _526
REMARK  202  A    between atoms: _526  and  _527
REMARK  203  A    between atoms: _530  and  _532
REMARK  204  A    between atoms: _532  and  _533
REMARK  205  A    between atoms: _532  and  _535
REMARK  206  A    between atoms: _535  and  _536
REMARK  207  A    between atoms: _542  and  _544
REMARK  208  A    between atoms: _544  and  _545
REMARK  209  A    between atoms: _544  and  _547
REMARK  210  A    between atoms: _550  and  _552
REMARK  211  A    between atoms: _552  and  _553
REMARK  212  A    between atoms: _552  and  _555
REMARK  213  A    between atoms: _555  and  _556
REMARK  214  A    between atoms: _556  and  _557
REMARK  215  A    between atoms: _560  and  _562
REMARK  216  A    between atoms: _562  and  _563
REMARK  217  A    between atoms: _562  and  _565
REMARK  218  A    between atoms: _565  and  _566
REMARK  219  A    between atoms: _569  and  _571
REMARK  220  A    between atoms: _571  and  _572
REMARK  221  A    between atoms: _571  and  _574
REMARK  222  A    between atoms: _574  and  _575
REMARK  223  A    between atoms: _580  and  _581
REMARK  224  A    between atoms: _583  and  _585
REMARK  225  A    between atoms: _585  and  _586
REMARK  226  A    between atoms: _589  and  _590
REMARK                            x       y       z     vdW  Elec       q    Type
REMARK                         _______ _______ _______ _____ _____    ______ ____
ROOT
ATOM      1  O   HOH     1       4.269   0.665 -13.413  0.00  0.00    +0.000 OA
ENDROOT
TORSDOF 0
REMARK  Name = ../refined-set-2016/4lvt/4lvt_pocket.pdb
REMARK  226 active torsions:
REMARK  status: ('A' for Active; 'I' for Inactive)
REMARK    1  A    between atoms: _1  and  _3
REMARK    2  A    between atoms: _3  and  _4
REMARK    3  A    between atoms: _3  and  _6
REMARK    4  A    between atoms: _6  and  _7
REMARK    5  A    between atoms: _12  and  _13
REMARK    6  A    between atoms: _15  and  _17
REMARK    7  A    between atoms: _17  and  _18
REMARK    8  A    between atoms: _17  and  _20
REMARK    9  A    between atoms: _20  and  _21
REMARK   10  A    between atoms: _24  and  _26
REMARK   11  A    between atoms: _26  and  _27
REMARK   12  A    between atoms: _26  and  _29
REMARK   13  A    between atoms: _29  and  _30
REMARK   14  A    between atoms: _33  and  _35
REMARK   15  A    between atoms: _35  and  _36
REMARK   16  A    between atoms: _35  and  _38
REMARK   17  A    between atoms: _38  and  _39
REMARK   18  A    between atoms: _39  and  _40
REMARK   19  A    between atoms: _45  and  _47
REMARK   20  A    between atoms: _47  and  _48
REMARK   21  A    between atoms: _51  and  _53
REMARK   22  A    between atoms: _53  and  _54
REMARK   23  A    between atoms: _56  and  _58
REMARK   24  A    between atoms: _58  and  _59
REMARK   25  A    between atoms: _58  and  _61
REMARK   26  A    between atoms: _61  and  _62
REMARK   27  A    between atoms: _65  and  _67
REMARK   28  A    between atoms: _67  and  _68
REMARK   29  A    between atoms: _67  and  _70
REMARK   30  A    between atoms: _70  and  _71
REMARK   31  A    between atoms: _74  and  _76
REMARK   32  A    between atoms: _76  and  _77
REMARK   33  A    between atoms: _76  and  _79
REMARK   34  A    between atoms: _79  and  _80
REMARK   35  A    between atoms: _86  and  _88
REMARK   36  A    between atoms: _88  and  _89
REMARK   37  A    between atoms: _88  and  _91
REMARK   38  A    between atoms: _91  and  _92
REMARK   39  A    between atoms: _94  and  _96
REMARK   40  A    between atoms: _96  and  _97
REMARK   41  A    between atoms: _96  and  _99
REMARK   42  A    between atoms: _99  and  _100
REMARK   43  A    between atoms: _100  and  _101
REMARK   44  A    between atoms: _101  and  _102
REMARK   45  A    between atoms: _111  and  _113
REMARK   46  A    between atoms: _113  and  _114
REMARK   47  A    between atoms: _113  and  _116
REMARK   48  A    between atoms: _116  and  _117
REMARK   49  A    between atoms: _117  and  _118
REMARK   50  A    between atoms: _118  and  _119
REMARK   51  A    between atoms: _128  and  _130
REMARK   52  A    between atoms: _130  and  _131
REMARK   53  A    between atoms: _130  and  _133
REMARK   54  A    between atoms: _133  and  _134
REMARK   55  A    between atoms: _139  and  _140
REMARK   56  A    between atoms: _142  and  _144
REMARK   57  A    between atoms: _144  and  _145
REMARK   58  A    between atoms: _144  and  _147
REMARK   59  A    between atoms: _147  and  _148
REMARK   60  A    between atoms: _148  and  _149
REMARK   61  A    between atoms: _149  and  _150
REMARK   62  A    between atoms: _159  and  _161
REMARK   63  A    between atoms: _161  and  _162
REMARK   64  A    between atoms: _161  and  _164
REMARK   65  A    between atoms: _164  and  _165
REMARK   66  A    between atoms: _165  and  _166
REMARK   67  A    between atoms: _166  and  _167
REMARK   68  A    between atoms: _176  and  _178
REMARK   69  A    between atoms: _178  and  _179
REMARK   70  A    between atoms: _178  and  _181
REMARK   71  A    between atoms: _181  and  _182
REMARK   72  A    between atoms: _185  and  _187
REMARK   73  A    between atoms: _187  and  _188
REMARK   74  A    between atoms: _187  and  _190
REMARK   75  A    between atoms: _190  and  _191
REMARK   76  A    between atoms: _197  and  _199
REMARK   77  A    between atoms: _199  and  _200
REMARK   78  A    between atoms: _203  and  _205
REMARK   79  A    between atoms: _205  and  _206
REMARK   80  A    between atoms: _205  and  _208
REMARK   81  A    between atoms: _208  and  _209
REMARK   82  A    between atoms: _209  and  _210
REMARK   83  A    between atoms: _213  and  _215
REMARK   84  A    between atoms: _215  and  _216
REMARK   85  A    between atoms: _215  and  _218
REMARK   86  A    between atoms: _218  and  _219
REMARK   87  A    between atoms: _219  and  _220
REMARK   88  A    between atoms: _222  and  _224
REMARK   89  A    between atoms: _224  and  _225
REMARK   90  A    between atoms: _224  and  _227
REMARK   91  A    between atoms: _227  and  _228
REMARK   92  A    between atoms: _230  and  _232
REMARK   93  A    between atoms: _232  and  _233
REMARK   94  A    between atoms: _232  and  _235
REMARK   95  A    between atoms: _235  and  _236
REMARK   96  A    between atoms: _236  and  _237
REMARK   97  A    between atoms: _237  and  _238
REMARK   98  A    between atoms: _247  and  _249
REMARK   99  A    between atoms: _249  and  _250
REMARK  100  A    between atoms: _249  and  _252
REMARK  101  A    between atoms: _252  and  _253
REMARK  102  A    between atoms: _256  and  _258
REMARK  103  A    between atoms: _258  and  _259
REMARK  104  A    between atoms: _258  and  _261
REMARK  105  A    between atoms: _264  and  _266
REMARK  106  A    between atoms: _266  and  _267
REMARK  107  A    between atoms: _266  and  _269
REMARK  108  A    between atoms: _272  and  _274
REMARK  109  A    between atoms: _274  and  _275
REMARK  110  A    between atoms: _274  and  _277
REMARK  111  A    between atoms: _277  and  _278
REMARK  112  A    between atoms: _278  and  _279
REMARK  113  A    between atoms: _282  and  _284
REMARK  114  A    between atoms: _284  and  _285
REMARK  115  A    between atoms: _284  and  _287
REMARK  116  A    between atoms: _287  and  _288
REMARK  117  A    between atoms: _288  and  _289
REMARK  118  A    between atoms: _292  and  _294
REMARK  119  A    between atoms: _294  and  _295
REMARK  120  A    between atoms: _294  and  _297
REMARK  121  A    between atoms: _297  and  _298
REMARK  122  A    between atoms: _301  and  _303
REMARK  123  A    between atoms: _303  and  _304
REMARK  124  A    between atoms: _303  and  _306
REMARK  125  A    between atoms: _306  and  _307
REMARK  126  A    between atoms: _313  and  _315
REMARK  127  A    between atoms: _315  and  _316
REMARK  128  A    between atoms: _315  and  _318
REMARK  129  A    between atoms: _318  and  _319
REMARK  130  A    between atoms: _319  and  _320
REMARK  131  A    between atoms: _320  and  _321
REMARK  132  A    between atoms: _330  and  _332
REMARK  133  A    between atoms: _332  and  _333
REMARK  134  A    between atoms: _332  and  _335
REMARK  135  A    between atoms: _335  and  _336
REMARK  136  A    between atoms: _339  and  _341
REMARK  137  A    between atoms: _341  and  _342
REMARK  138  A    between atoms: _341  and  _344
REMARK  139  A    between atoms: _347  and  _349
REMARK  140  A    between atoms: _349  and  _350
REMARK  141  A    between atoms: _349  and  _352
REMARK  142  A    between atoms: _352  and  _353
REMARK  143  A    between atoms: _358  and  _360
REMARK  144  A    between atoms: _360  and  _361
REMARK  145  A    between atoms: _360  and  _363
REMARK  146  A    between atoms: _363  and  _364
REMARK  147  A    between atoms: _374  and  _376
REMARK  148  A    between atoms: _376  and  _377
REMARK  149  A    between atoms: _379  and  _381
REMARK  150  A    between atoms: _381  and  _382
REMARK  151  A    between atoms: _381  and  _384
REMARK  152  A    between atoms: _384  and  _385
REMARK  153  A    between atoms: _385  and  _386
REMARK  154  A    between atoms: _386  and  _387
REMARK  155  A    between atoms: _396  and  _398
REMARK  156  A    between atoms: _398  and  _399
REMARK  157  A    between atoms: _398  and  _401
REMARK  158  A    between atoms: _401  and  _402
REMARK  159  A    between atoms: _405  and  _407
REMARK  160  A    between atoms: _407  and  _408
REMARK  161  A    between atoms: _407  and  _410
REMARK  162  A    between atoms: _413  and  _415
REMARK  163  A    between atoms: _415  and  _416
REMARK  164  A    between atoms: _419  and  _421
REMARK  165  A    between atoms: _421  and  _422
REMARK  166  A    between atoms: _421  and  _424
REMARK  167  A    between atoms: _424  and  _425
REMARK  168  A    between atoms: _431  and  _433
REMARK  169  A    between atoms: _433  and  _434
REMARK  170  A    between atoms: _433  and  _436
REMARK  171  A    between atoms: _436  and  _437
REMARK  172  A    between atoms: _443  and  _445
REMARK  173  A    between atoms: _445  and  _446
REMARK  174  A    between atoms: _445  and  _448
REMARK  175  A    between atoms: _448  and  _449
REMARK  176  A    between atoms: _449  and  _450
REMARK  177  A    between atoms: _453  and  _455
REMARK  178  A    between atoms: _455  and  _456
REMARK  179  A    between atoms: _455  and  _458
REMARK  180  A    between atoms: _458  and  _459
REMARK  181  A    between atoms: _465  and  _467
REMARK  182  A    between atoms: _467  and  _468
REMARK  183  A    between atoms: _470  and  _472
REMARK  184  A    between atoms: _472  and  _473
REMARK  185  A    between atoms: _475  and  _477
REMARK  186  A    between atoms: _477  and  _478
REMARK  187  A    between atoms: _477  and  _480
REMARK  188  A    between atoms: _483  and  _485
REMARK  189  A    between atoms: _485  and  _486
REMARK  190  A    between atoms: _485  and  _488
REMARK  191  A    between atoms: _488  and  _489
REMARK  192  A    between atoms: _489  and  _490
REMARK  193  A    between atoms: _492  and  _494
REMARK  194  A    between atoms: _494  and  _495
REMARK  195  A    between atoms: _494  and  _497
REMARK  196  A    between atoms: _497  and  _498
REMARK  197  A    between atoms: _508  and  _510
REMARK  198  A    between atoms: _510  and  _511
REMARK  199  A    between atoms: _510  and  _513
REMARK  200  A    between atoms: _513  and  _514
REMARK  201  A    between atoms: _524  and  _526
REMARK  202  A    between atoms: _526  and  _527
REMARK  203  A    between atoms: _530  and  _532
REMARK  204  A    between atoms: _532  and  _533
REMARK  205  A    between atoms: _532  and  _535
REMARK  206  A    between atoms: _535  and  _536
REMARK  207  A    between atoms: _542  and  _544
REMARK  208  A    between atoms: _544  and  _545
REMARK  209  A    between atoms: _544  and  _547
REMARK  210  A    between atoms: _550  and  _552
REMARK  211  A    between atoms: _552  and  _553
REMARK  212  A    between atoms: _552  and  _555
REMARK  213  A    between atoms: _555  and  _556
REMARK  214  A    between atoms: _556  and  _557
REMARK  215  A    between atoms: _560  and  _562
REMARK  216  A    between atoms: _562  and  _563
REMARK  217  A    between atoms: _562  and  _565
REMARK  218  A    between atoms: _565  and  _566
REMARK  219  A    between atoms: _569  and  _571
REMARK  220  A    between atoms: _571  and  _572
REMARK  221  A    between atoms: _571  and  _574
REMARK  222  A    between atoms: _574  and  _575
REMARK  223  A    between atoms: _580  and  _581
REMARK  224  A    between atoms: _583  and  _585
REMARK  225  A    between atoms: _585  and  _586
REMARK  226  A    between atoms: _589  and  _590
REMARK                            x       y       z     vdW  Elec       q    Type
REMARK                         _______ _______ _______ _____ _____    ______ ____
ROOT
ATOM      1  O   HOH     1       7.698   5.555 -10.931  0.00  0.00    +0.000 OA
ENDROOT
TORSDOF 0
REMARK  Name = ../refined-set-2016/4lvt/4lvt_pocket.pdb
REMARK  226 active torsions:
REMARK  status: ('A' for Active; 'I' for Inactive)
REMARK    1  A    between atoms: _1  and  _3
REMARK    2  A    between atoms: _3  and  _4
REMARK    3  A    between atoms: _3  and  _6
REMARK    4  A    between atoms: _6  and  _7
REMARK    5  A    between atoms: _12  and  _13
REMARK    6  A    between atoms: _15  and  _17
REMARK    7  A    between atoms: _17  and  _18
REMARK    8  A    between atoms: _17  and  _20
REMARK    9  A    between atoms: _20  and  _21
REMARK   10  A    between atoms: _24  and  _26
REMARK   11  A    between atoms: _26  and  _27
REMARK   12  A    between atoms: _26  and  _29
REMARK   13  A    between atoms: _29  and  _30
REMARK   14  A    between atoms: _33  and  _35
REMARK   15  A    between atoms: _35  and  _36
REMARK   16  A    between atoms: _35  and  _38
REMARK   17  A    between atoms: _38  and  _39
REMARK   18  A    between atoms: _39  and  _40
REMARK   19  A    between atoms: _45  and  _47
REMARK   20  A    between atoms: _47  and  _48
REMARK   21  A    between atoms: _51  and  _53
REMARK   22  A    between atoms: _53  and  _54
REMARK   23  A    between atoms: _56  and  _58
REMARK   24  A    between atoms: _58  and  _59
REMARK   25  A    between atoms: _58  and  _61
REMARK   26  A    between atoms: _61  and  _62
REMARK   27  A    between atoms: _65  and  _67
REMARK   28  A    between atoms: _67  and  _68
REMARK   29  A    between atoms: _67  and  _70
REMARK   30  A    between atoms: _70  and  _71
REMARK   31  A    between atoms: _74  and  _76
REMARK   32  A    between atoms: _76  and  _77
REMARK   33  A    between atoms: _76  and  _79
REMARK   34  A    between atoms: _79  and  _80
REMARK   35  A    between atoms: _86  and  _88
REMARK   36  A    between atoms: _88  and  _89
REMARK   37  A    between atoms: _88  and  _91
REMARK   38  A    between atoms: _91  and  _92
REMARK   39  A    between atoms: _94  and  _96
REMARK   40  A    between atoms: _96  and  _97
REMARK   41  A    between atoms: _96  and  _99
REMARK   42  A    between atoms: _99  and  _100
REMARK   43  A    between atoms: _100  and  _101
REMARK   44  A    between atoms: _101  and  _102
REMARK   45  A    between atoms: _111  and  _113
REMARK   46  A    between atoms: _113  and  _114
REMARK   47  A    between atoms: _113  and  _116
REMARK   48  A    between atoms: _116  and  _117
REMARK   49  A    between atoms: _117  and  _118
REMARK   50  A    between atoms: _118  and  _119
REMARK   51  A    between atoms: _128  and  _130
REMARK   52  A    between atoms: _130  and  _131
REMARK   53  A    between atoms: _130  and  _133
REMARK   54  A    between atoms: _133  and  _134
REMARK   55  A    between atoms: _139  and  _140
REMARK   56  A    between atoms: _142  and  _144
REMARK   57  A    between atoms: _144  and  _145
REMARK   58  A    between atoms: _144  and  _147
REMARK   59  A    between atoms: _147  and  _148
REMARK   60  A    between atoms: _148  and  _149
REMARK   61  A    between atoms: _149  and  _150
REMARK   62  A    between atoms: _159  and  _161
REMARK   63  A    between atoms: _161  and  _162
REMARK   64  A    between atoms: _161  and  _164
REMARK   65  A    between atoms: _164  and  _165
REMARK   66  A    between atoms: _165  and  _166
REMARK   67  A    between atoms: _166  and  _167
REMARK   68  A    between atoms: _176  and  _178
REMARK   69  A    between atoms: _178  and  _179
REMARK   70  A    between atoms: _178  and  _181
REMARK   71  A    between atoms: _181  and  _182
REMARK   72  A    between atoms: _185  and  _187
REMARK   73  A    between atoms: _187  and  _188
REMARK   74  A    between atoms: _187  and  _190
REMARK   75  A    between atoms: _190  and  _191
REMARK   76  A    between atoms: _197  and  _199
REMARK   77  A    between atoms: _199  and  _200
REMARK   78  A    between atoms: _203  and  _205
REMARK   79  A    between atoms: _205  and  _206
REMARK   80  A    between atoms: _205  and  _208
REMARK   81  A    between atoms: _208  and  _209
REMARK   82  A    between atoms: _209  and  _210
REMARK   83  A    between atoms: _213  and  _215
REMARK   84  A    between atoms: _215  and  _216
REMARK   85  A    between atoms: _215  and  _218
REMARK   86  A    between atoms: _218  and  _219
REMARK   87  A    between atoms: _219  and  _220
REMARK   88  A    between atoms: _222  and  _224
REMARK   89  A    between atoms: _224  and  _225
REMARK   90  A    between atoms: _224  and  _227
REMARK   91  A    between atoms: _227  and  _228
REMARK   92  A    between atoms: _230  and  _232
REMARK   93  A    between atoms: _232  and  _233
REMARK   94  A    between atoms: _232  and  _235
REMARK   95  A    between atoms: _235  and  _236
REMARK   96  A    between atoms: _236  and  _237
REMARK   97  A    between atoms: _237  and  _238
REMARK   98  A    between atoms: _247  and  _249
REMARK   99  A    between atoms: _249  and  _250
REMARK  100  A    between atoms: _249  and  _252
REMARK  101  A    between atoms: _252  and  _253
REMARK  102  A    between atoms: _256  and  _258
REMARK  103  A    between atoms: _258  and  _259
REMARK  104  A    between atoms: _258  and  _261
REMARK  105  A    between atoms: _264  and  _266
REMARK  106  A    between atoms: _266  and  _267
REMARK  107  A    between atoms: _266  and  _269
REMARK  108  A    between atoms: _272  and  _274
REMARK  109  A    between atoms: _274  and  _275
REMARK  110  A    between atoms: _274  and  _277
REMARK  111  A    between atoms: _277  and  _278
REMARK  112  A    between atoms: _278  and  _279
REMARK  113  A    between atoms: _282  and  _284
REMARK  114  A    between atoms: _284  and  _285
REMARK  115  A    between atoms: _284  and  _287
REMARK  116  A    between atoms: _287  and  _288
REMARK  117  A    between atoms: _288  and  _289
REMARK  118  A    between atoms: _292  and  _294
REMARK  119  A    between atoms: _294  and  _295
REMARK  120  A    between atoms: _294  and  _297
REMARK  121  A    between atoms: _297  and  _298
REMARK  122  A    between atoms: _301  and  _303
REMARK  123  A    between atoms: _303  and  _304
REMARK  124  A    between atoms: _303  and  _306
REMARK  125  A    between atoms: _306  and  _307
REMARK  126  A    between atoms: _313  and  _315
REMARK  127  A    between atoms: _315  and  _316
REMARK  128  A    between atoms: _315  and  _318
REMARK  129  A    between atoms: _318  and  _319
REMARK  130  A    between atoms: _319  and  _320
REMARK  131  A    between atoms: _320  and  _321
REMARK  132  A    between atoms: _330  and  _332
REMARK  133  A    between atoms: _332  and  _333
REMARK  134  A    between atoms: _332  and  _335
REMARK  135  A    between atoms: _335  and  _336
REMARK  136  A    between atoms: _339  and  _341
REMARK  137  A    between atoms: _341  and  _342
REMARK  138  A    between atoms: _341  and  _344
REMARK  139  A    between atoms: _347  and  _349
REMARK  140  A    between atoms: _349  and  _350
REMARK  141  A    between atoms: _349  and  _352
REMARK  142  A    between atoms: _352  and  _353
REMARK  143  A    between atoms: _358  and  _360
REMARK  144  A    between atoms: _360  and  _361
REMARK  145  A    between atoms: _360  and  _363
REMARK  146  A    between atoms: _363  and  _364
REMARK  147  A    between atoms: _374  and  _376
REMARK  148  A    between atoms: _376  and  _377
REMARK  149  A    between atoms: _379  and  _381
REMARK  150  A    between atoms: _381  and  _382
REMARK  151  A    between atoms: _381  and  _384
REMARK  152  A    between atoms: _384  and  _385
REMARK  153  A    between atoms: _385  and  _386
REMARK  154  A    between atoms: _386  and  _387
REMARK  155  A    between atoms: _396  and  _398
REMARK  156  A    between atoms: _398  and  _399
REMARK  157  A    between atoms: _398  and  _401
REMARK  158  A    between atoms: _401  and  _402
REMARK  159  A    between atoms: _405  and  _407
REMARK  160  A    between atoms: _407  and  _408
REMARK  161  A    between atoms: _407  and  _410
REMARK  162  A    between atoms: _413  and  _415
REMARK  163  A    between atoms: _415  and  _416
REMARK  164  A    between atoms: _419  and  _421
REMARK  165  A    between atoms: _421  and  _422
REMARK  166  A    between atoms: _421  and  _424
REMARK  167  A    between atoms: _424  and  _425
REMARK  168  A    between atoms: _431  and  _433
REMARK  169  A    between atoms: _433  and  _434
REMARK  170  A    between atoms: _433  and  _436
REMARK  171  A    between atoms: _436  and  _437
REMARK  172  A    between atoms: _443  and  _445
REMARK  173  A    between atoms: _445  and  _446
REMARK  174  A    between atoms: _445  and  _448
REMARK  175  A    between atoms: _448  and  _449
REMARK  176  A    between atoms: _449  and  _450
REMARK  177  A    between atoms: _453  and  _455
REMARK  178  A    between atoms: _455  and  _456
REMARK  179  A    between atoms: _455  and  _458
REMARK  180  A    between atoms: _458  and  _459
REMARK  181  A    between atoms: _465  and  _467
REMARK  182  A    between atoms: _467  and  _468
REMARK  183  A    between atoms: _470  and  _472
REMARK  184  A    between atoms: _472  and  _473
REMARK  185  A    between atoms: _475  and  _477
REMARK  186  A    between atoms: _477  and  _478
REMARK  187  A    between atoms: _477  and  _480
REMARK  188  A    between atoms: _483  and  _485
REMARK  189  A    between atoms: _485  and  _486
REMARK  190  A    between atoms: _485  and  _488
REMARK  191  A    between atoms: _488  and  _489
REMARK  192  A    between atoms: _489  and  _490
REMARK  193  A    between atoms: _492  and  _494
REMARK  194  A    between atoms: _494  and  _495
REMARK  195  A    between atoms: _494  and  _497
REMARK  196  A    between atoms: _497  and  _498
REMARK  197  A    between atoms: _508  and  _510
REMARK  198  A    between atoms: _510  and  _511
REMARK  199  A    between atoms: _510  and  _513
REMARK  200  A    between atoms: _513  and  _514
REMARK  201  A    between atoms: _524  and  _526
REMARK  202  A    between atoms: _526  and  _527
REMARK  203  A    between atoms: _530  and  _532
REMARK  204  A    between atoms: _532  and  _533
REMARK  205  A    between atoms: _532  and  _535
REMARK  206  A    between atoms: _535  and  _536
REMARK  207  A    between atoms: _542  and  _544
REMARK  208  A    between atoms: _544  and  _545
REMARK  209  A    between atoms: _544  and  _547
REMARK  210  A    between atoms: _550  and  _552
REMARK  211  A    between atoms: _552  and  _553
REMARK  212  A    between atoms: _552  and  _555
REMARK  213  A    between atoms: _555  and  _556
REMARK  214  A    between atoms: _556  and  _557
REMARK  215  A    between atoms: _560  and  _562
REMARK  216  A    between atoms: _562  and  _563
REMARK  217  A    between atoms: _562  and  _565
REMARK  218  A    between atoms: _565  and  _566
REMARK  219  A    between atoms: _569  and  _571
REMARK  220  A    between atoms: _571  and  _572
REMARK  221  A    between atoms: _571  and  _574
REMARK  222  A    between atoms: _574  and  _575
REMARK  223  A    between atoms: _580  and  _581
REMARK  224  A    between atoms: _583  and  _585
REMARK  225  A    between atoms: _585  and  _586
REMARK  226  A    between atoms: _589  and  _590
REMARK                            x       y       z     vdW  Elec       q    Type
REMARK                         _______ _______ _______ _____ _____    ______ ____
ROOT
ATOM      1  O   HOH     1       4.344   5.191 -10.101  0.00  0.00    +0.000 OA
ENDROOT
TORSDOF 0
REMARK  Name = ../refined-set-2016/4lvt/4lvt_pocket.pdb
REMARK  226 active torsions:
REMARK  status: ('A' for Active; 'I' for Inactive)
REMARK    1  A    between atoms: _1  and  _3
REMARK    2  A    between atoms: _3  and  _4
REMARK    3  A    between atoms: _3  and  _6
REMARK    4  A    between atoms: _6  and  _7
REMARK    5  A    between atoms: _12  and  _13
REMARK    6  A    between atoms: _15  and  _17
REMARK    7  A    between atoms: _17  and  _18
REMARK    8  A    between atoms: _17  and  _20
REMARK    9  A    between atoms: _20  and  _21
REMARK   10  A    between atoms: _24  and  _26
REMARK   11  A    between atoms: _26  and  _27
REMARK   12  A    between atoms: _26  and  _29
REMARK   13  A    between atoms: _29  and  _30
REMARK   14  A    between atoms: _33  and  _35
REMARK   15  A    between atoms: _35  and  _36
REMARK   16  A    between atoms: _35  and  _38
REMARK   17  A    between atoms: _38  and  _39
REMARK   18  A    between atoms: _39  and  _40
REMARK   19  A    between atoms: _45  and  _47
REMARK   20  A    between atoms: _47  and  _48
REMARK   21  A    between atoms: _51  and  _53
REMARK   22  A    between atoms: _53  and  _54
REMARK   23  A    between atoms: _56  and  _58
REMARK   24  A    between atoms: _58  and  _59
REMARK   25  A    between atoms: _58  and  _61
REMARK   26  A    between atoms: _61  and  _62
REMARK   27  A    between atoms: _65  and  _67
REMARK   28  A    between atoms: _67  and  _68
REMARK   29  A    between atoms: _67  and  _70
REMARK   30  A    between atoms: _70  and  _71
REMARK   31  A    between atoms: _74  and  _76
REMARK   32  A    between atoms: _76  and  _77
REMARK   33  A    between atoms: _76  and  _79
REMARK   34  A    between atoms: _79  and  _80
REMARK   35  A    between atoms: _86  and  _88
REMARK   36  A    between atoms: _88  and  _89
REMARK   37  A    between atoms: _88  and  _91
REMARK   38  A    between atoms: _91  and  _92
REMARK   39  A    between atoms: _94  and  _96
REMARK   40  A    between atoms: _96  and  _97
REMARK   41  A    between atoms: _96  and  _99
REMARK   42  A    between atoms: _99  and  _100
REMARK   43  A    between atoms: _100  and  _101
REMARK   44  A    between atoms: _101  and  _102
REMARK   45  A    between atoms: _111  and  _113
REMARK   46  A    between atoms: _113  and  _114
REMARK   47  A    between atoms: _113  and  _116
REMARK   48  A    between atoms: _116  and  _117
REMARK   49  A    between atoms: _117  and  _118
REMARK   50  A    between atoms: _118  and  _119
REMARK   51  A    between atoms: _128  and  _130
REMARK   52  A    between atoms: _130  and  _131
REMARK   53  A    between atoms: _130  and  _133
REMARK   54  A    between atoms: _133  and  _134
REMARK   55  A    between atoms: _139  and  _140
REMARK   56  A    between atoms: _142  and  _144
REMARK   57  A    between atoms: _144  and  _145
REMARK   58  A    between atoms: _144  and  _147
REMARK   59  A    between atoms: _147  and  _148
REMARK   60  A    between atoms: _148  and  _149
REMARK   61  A    between atoms: _149  and  _150
REMARK   62  A    between atoms: _159  and  _161
REMARK   63  A    between atoms: _161  and  _162
REMARK   64  A    between atoms: _161  and  _164
REMARK   65  A    between atoms: _164  and  _165
REMARK   66  A    between atoms: _165  and  _166
REMARK   67  A    between atoms: _166  and  _167
REMARK   68  A    between atoms: _176  and  _178
REMARK   69  A    between atoms: _178  and  _179
REMARK   70  A    between atoms: _178  and  _181
REMARK   71  A    between atoms: _181  and  _182
REMARK   72  A    between atoms: _185  and  _187
REMARK   73  A    between atoms: _187  and  _188
REMARK   74  A    between atoms: _187  and  _190
REMARK   75  A    between atoms: _190  and  _191
REMARK   76  A    between atoms: _197  and  _199
REMARK   77  A    between atoms: _199  and  _200
REMARK   78  A    between atoms: _203  and  _205
REMARK   79  A    between atoms: _205  and  _206
REMARK   80  A    between atoms: _205  and  _208
REMARK   81  A    between atoms: _208  and  _209
REMARK   82  A    between atoms: _209  and  _210
REMARK   83  A    between atoms: _213  and  _215
REMARK   84  A    between atoms: _215  and  _216
REMARK   85  A    between atoms: _215  and  _218
REMARK   86  A    between atoms: _218  and  _219
REMARK   87  A    between atoms: _219  and  _220
REMARK   88  A    between atoms: _222  and  _224
REMARK   89  A    between atoms: _224  and  _225
REMARK   90  A    between atoms: _224  and  _227
REMARK   91  A    between atoms: _227  and  _228
REMARK   92  A    between atoms: _230  and  _232
REMARK   93  A    between atoms: _232  and  _233
REMARK   94  A    between atoms: _232  and  _235
REMARK   95  A    between atoms: _235  and  _236
REMARK   96  A    between atoms: _236  and  _237
REMARK   97  A    between atoms: _237  and  _238
REMARK   98  A    between atoms: _247  and  _249
REMARK   99  A    between atoms: _249  and  _250
REMARK  100  A    between atoms: _249  and  _252
REMARK  101  A    between atoms: _252  and  _253
REMARK  102  A    between atoms: _256  and  _258
REMARK  103  A    between atoms: _258  and  _259
REMARK  104  A    between atoms: _258  and  _261
REMARK  105  A    between atoms: _264  and  _266
REMARK  106  A    between atoms: _266  and  _267
REMARK  107  A    between atoms: _266  and  _269
REMARK  108  A    between atoms: _272  and  _274
REMARK  109  A    between atoms: _274  and  _275
REMARK  110  A    between atoms: _274  and  _277
REMARK  111  A    between atoms: _277  and  _278
REMARK  112  A    between atoms: _278  and  _279
REMARK  113  A    between atoms: _282  and  _284
REMARK  114  A    between atoms: _284  and  _285
REMARK  115  A    between atoms: _284  and  _287
REMARK  116  A    between atoms: _287  and  _288
REMARK  117  A    between atoms: _288  and  _289
REMARK  118  A    between atoms: _292  and  _294
REMARK  119  A    between atoms: _294  and  _295
REMARK  120  A    between atoms: _294  and  _297
REMARK  121  A    between atoms: _297  and  _298
REMARK  122  A    between atoms: _301  and  _303
REMARK  123  A    between atoms: _303  and  _304
REMARK  124  A    between atoms: _303  and  _306
REMARK  125  A    between atoms: _306  and  _307
REMARK  126  A    between atoms: _313  and  _315
REMARK  127  A    between atoms: _315  and  _316
REMARK  128  A    between atoms: _315  and  _318
REMARK  129  A    between atoms: _318  and  _319
REMARK  130  A    between atoms: _319  and  _320
REMARK  131  A    between atoms: _320  and  _321
REMARK  132  A    between atoms: _330  and  _332
REMARK  133  A    between atoms: _332  and  _333
REMARK  134  A    between atoms: _332  and  _335
REMARK  135  A    between atoms: _335  and  _336
REMARK  136  A    between atoms: _339  and  _341
REMARK  137  A    between atoms: _341  and  _342
REMARK  138  A    between atoms: _341  and  _344
REMARK  139  A    between atoms: _347  and  _349
REMARK  140  A    between atoms: _349  and  _350
REMARK  141  A    between atoms: _349  and  _352
REMARK  142  A    between atoms: _352  and  _353
REMARK  143  A    between atoms: _358  and  _360
REMARK  144  A    between atoms: _360  and  _361
REMARK  145  A    between atoms: _360  and  _363
REMARK  146  A    between atoms: _363  and  _364
REMARK  147  A    between atoms: _374  and  _376
REMARK  148  A    between atoms: _376  and  _377
REMARK  149  A    between atoms: _379  and  _381
REMARK  150  A    between atoms: _381  and  _382
REMARK  151  A    between atoms: _381  and  _384
REMARK  152  A    between atoms: _384  and  _385
REMARK  153  A    between atoms: _385  and  _386
REMARK  154  A    between atoms: _386  and  _387
REMARK  155  A    between atoms: _396  and  _398
REMARK  156  A    between atoms: _398  and  _399
REMARK  157  A    between atoms: _398  and  _401
REMARK  158  A    between atoms: _401  and  _402
REMARK  159  A    between atoms: _405  and  _407
REMARK  160  A    between atoms: _407  and  _408
REMARK  161  A    between atoms: _407  and  _410
REMARK  162  A    between atoms: _413  and  _415
REMARK  163  A    between atoms: _415  and  _416
REMARK  164  A    between atoms: _419  and  _421
REMARK  165  A    between atoms: _421  and  _422
REMARK  166  A    between atoms: _421  and  _424
REMARK  167  A    between atoms: _424  and  _425
REMARK  168  A    between atoms: _431  and  _433
REMARK  169  A    between atoms: _433  and  _434
REMARK  170  A    between atoms: _433  and  _436
REMARK  171  A    between atoms: _436  and  _437
REMARK  172  A    between atoms: _443  and  _445
REMARK  173  A    between atoms: _445  and  _446
REMARK  174  A    between atoms: _445  and  _448
REMARK  175  A    between atoms: _448  and  _449
REMARK  176  A    between atoms: _449  and  _450
REMARK  177  A    between atoms: _453  and  _455
REMARK  178  A    between atoms: _455  and  _456
REMARK  179  A    between atoms: _455  and  _458
REMARK  180  A    between atoms: _458  and  _459
REMARK  181  A    between atoms: _465  and  _467
REMARK  182  A    between atoms: _467  and  _468
REMARK  183  A    between atoms: _470  and  _472
REMARK  184  A    between atoms: _472  and  _473
REMARK  185  A    between atoms: _475  and  _477
REMARK  186  A    between atoms: _477  and  _478
REMARK  187  A    between atoms: _477  and  _480
REMARK  188  A    between atoms: _483  and  _485
REMARK  189  A    between atoms: _485  and  _486
REMARK  190  A    between atoms: _485  and  _488
REMARK  191  A    between atoms: _488  and  _489
REMARK  192  A    between atoms: _489  and  _490
REMARK  193  A    between atoms: _492  and  _494
REMARK  194  A    between atoms: _494  and  _495
REMARK  195  A    between atoms: _494  and  _497
REMARK  196  A    between atoms: _497  and  _498
REMARK  197  A    between atoms: _508  and  _510
REMARK  198  A    between atoms: _510  and  _511
REMARK  199  A    between atoms: _510  and  _513
REMARK  200  A    between atoms: _513  and  _514
REMARK  201  A    between atoms: _524  and  _526
REMARK  202  A    between atoms: _526  and  _527
REMARK  203  A    between atoms: _530  and  _532
REMARK  204  A    between atoms: _532  and  _533
REMARK  205  A    between atoms: _532  and  _535
REMARK  206  A    between atoms: _535  and  _536
REMARK  207  A    between atoms: _542  and  _544
REMARK  208  A    between atoms: _544  and  _545
REMARK  209  A    between atoms: _544  and  _547
REMARK  210  A    between atoms: _550  and  _552
REMARK  211  A    between atoms: _552  and  _553
REMARK  212  A    between atoms: _552  and  _555
REMARK  213  A    between atoms: _555  and  _556
REMARK  214  A    between atoms: _556  and  _557
REMARK  215  A    between atoms: _560  and  _562
REMARK  216  A    between atoms: _562  and  _563
REMARK  217  A    between atoms: _562  and  _565
REMARK  218  A    between atoms: _565  and  _566
REMARK  219  A    between atoms: _569  and  _571
REMARK  220  A    between atoms: _571  and  _572
REMARK  221  A    between atoms: _571  and  _574
REMARK  222  A    between atoms: _574  and  _575
REMARK  223  A    between atoms: _580  and  _581
REMARK  224  A    between atoms: _583  and  _585
REMARK  225  A    between atoms: _585  and  _586
REMARK  226  A    between atoms: _589  and  _590
REMARK                            x       y       z     vdW  Elec       q    Type
REMARK                         _______ _______ _______ _____ _____    ______ ____
ROOT
ATOM      1  O   HOH     1       9.554  -4.324 -13.042  0.00  0.00    +0.000 OA
ENDROOT
TORSDOF 0
REMARK  Name = ../refined-set-2016/4lvt/4lvt_pocket.pdb
REMARK  226 active torsions:
REMARK  status: ('A' for Active; 'I' for Inactive)
REMARK    1  A    between atoms: _1  and  _3
REMARK    2  A    between atoms: _3  and  _4
REMARK    3  A    between atoms: _3  and  _6
REMARK    4  A    between atoms: _6  and  _7
REMARK    5  A    between atoms: _12  and  _13
REMARK    6  A    between atoms: _15  and  _17
REMARK    7  A    between atoms: _17  and  _18
REMARK    8  A    between atoms: _17  and  _20
REMARK    9  A    between atoms: _20  and  _21
REMARK   10  A    between atoms: _24  and  _26
REMARK   11  A    between atoms: _26  and  _27
REMARK   12  A    between atoms: _26  and  _29
REMARK   13  A    between atoms: _29  and  _30
REMARK   14  A    between atoms: _33  and  _35
REMARK   15  A    between atoms: _35  and  _36
REMARK   16  A    between atoms: _35  and  _38
REMARK   17  A    between atoms: _38  and  _39
REMARK   18  A    between atoms: _39  and  _40
REMARK   19  A    between atoms: _45  and  _47
REMARK   20  A    between atoms: _47  and  _48
REMARK   21  A    between atoms: _51  and  _53
REMARK   22  A    between atoms: _53  and  _54
REMARK   23  A    between atoms: _56  and  _58
REMARK   24  A    between atoms: _58  and  _59
REMARK   25  A    between atoms: _58  and  _61
REMARK   26  A    between atoms: _61  and  _62
REMARK   27  A    between atoms: _65  and  _67
REMARK   28  A    between atoms: _67  and  _68
REMARK   29  A    between atoms: _67  and  _70
REMARK   30  A    between atoms: _70  and  _71
REMARK   31  A    between atoms: _74  and  _76
REMARK   32  A    between atoms: _76  and  _77
REMARK   33  A    between atoms: _76  and  _79
REMARK   34  A    between atoms: _79  and  _80
REMARK   35  A    between atoms: _86  and  _88
REMARK   36  A    between atoms: _88  and  _89
REMARK   37  A    between atoms: _88  and  _91
REMARK   38  A    between atoms: _91  and  _92
REMARK   39  A    between atoms: _94  and  _96
REMARK   40  A    between atoms: _96  and  _97
REMARK   41  A    between atoms: _96  and  _99
REMARK   42  A    between atoms: _99  and  _100
REMARK   43  A    between atoms: _100  and  _101
REMARK   44  A    between atoms: _101  and  _102
REMARK   45  A    between atoms: _111  and  _113
REMARK   46  A    between atoms: _113  and  _114
REMARK   47  A    between atoms: _113  and  _116
REMARK   48  A    between atoms: _116  and  _117
REMARK   49  A    between atoms: _117  and  _118
REMARK   50  A    between atoms: _118  and  _119
REMARK   51  A    between atoms: _128  and  _130
REMARK   52  A    between atoms: _130  and  _131
REMARK   53  A    between atoms: _130  and  _133
REMARK   54  A    between atoms: _133  and  _134
REMARK   55  A    between atoms: _139  and  _140
REMARK   56  A    between atoms: _142  and  _144
REMARK   57  A    between atoms: _144  and  _145
REMARK   58  A    between atoms: _144  and  _147
REMARK   59  A    between atoms: _147  and  _148
REMARK   60  A    between atoms: _148  and  _149
REMARK   61  A    between atoms: _149  and  _150
REMARK   62  A    between atoms: _159  and  _161
REMARK   63  A    between atoms: _161  and  _162
REMARK   64  A    between atoms: _161  and  _164
REMARK   65  A    between atoms: _164  and  _165
REMARK   66  A    between atoms: _165  and  _166
REMARK   67  A    between atoms: _166  and  _167
REMARK   68  A    between atoms: _176  and  _178
REMARK   69  A    between atoms: _178  and  _179
REMARK   70  A    between atoms: _178  and  _181
REMARK   71  A    between atoms: _181  and  _182
REMARK   72  A    between atoms: _185  and  _187
REMARK   73  A    between atoms: _187  and  _188
REMARK   74  A    between atoms: _187  and  _190
REMARK   75  A    between atoms: _190  and  _191
REMARK   76  A    between atoms: _197  and  _199
REMARK   77  A    between atoms: _199  and  _200
REMARK   78  A    between atoms: _203  and  _205
REMARK   79  A    between atoms: _205  and  _206
REMARK   80  A    between atoms: _205  and  _208
REMARK   81  A    between atoms: _208  and  _209
REMARK   82  A    between atoms: _209  and  _210
REMARK   83  A    between atoms: _213  and  _215
REMARK   84  A    between atoms: _215  and  _216
REMARK   85  A    between atoms: _215  and  _218
REMARK   86  A    between atoms: _218  and  _219
REMARK   87  A    between atoms: _219  and  _220
REMARK   88  A    between atoms: _222  and  _224
REMARK   89  A    between atoms: _224  and  _225
REMARK   90  A    between atoms: _224  and  _227
REMARK   91  A    between atoms: _227  and  _228
REMARK   92  A    between atoms: _230  and  _232
REMARK   93  A    between atoms: _232  and  _233
REMARK   94  A    between atoms: _232  and  _235
REMARK   95  A    between atoms: _235  and  _236
REMARK   96  A    between atoms: _236  and  _237
REMARK   97  A    between atoms: _237  and  _238
REMARK   98  A    between atoms: _247  and  _249
REMARK   99  A    between atoms: _249  and  _250
REMARK  100  A    between atoms: _249  and  _252
REMARK  101  A    between atoms: _252  and  _253
REMARK  102  A    between atoms: _256  and  _258
REMARK  103  A    between atoms: _258  and  _259
REMARK  104  A    between atoms: _258  and  _261
REMARK  105  A    between atoms: _264  and  _266
REMARK  106  A    between atoms: _266  and  _267
REMARK  107  A    between atoms: _266  and  _269
REMARK  108  A    between atoms: _272  and  _274
REMARK  109  A    between atoms: _274  and  _275
REMARK  110  A    between atoms: _274  and  _277
REMARK  111  A    between atoms: _277  and  _278
REMARK  112  A    between atoms: _278  and  _279
REMARK  113  A    between atoms: _282  and  _284
REMARK  114  A    between atoms: _284  and  _285
REMARK  115  A    between atoms: _284  and  _287
REMARK  116  A    between atoms: _287  and  _288
REMARK  117  A    between atoms: _288  and  _289
REMARK  118  A    between atoms: _292  and  _294
REMARK  119  A    between atoms: _294  and  _295
REMARK  120  A    between atoms: _294  and  _297
REMARK  121  A    between atoms: _297  and  _298
REMARK  122  A    between atoms: _301  and  _303
REMARK  123  A    between atoms: _303  and  _304
REMARK  124  A    between atoms: _303  and  _306
REMARK  125  A    between atoms: _306  and  _307
REMARK  126  A    between atoms: _313  and  _315
REMARK  127  A    between atoms: _315  and  _316
REMARK  128  A    between atoms: _315  and  _318
REMARK  129  A    between atoms: _318  and  _319
REMARK  130  A    between atoms: _319  and  _320
REMARK  131  A    between atoms: _320  and  _321
REMARK  132  A    between atoms: _330  and  _332
REMARK  133  A    between atoms: _332  and  _333
REMARK  134  A    between atoms: _332  and  _335
REMARK  135  A    between atoms: _335  and  _336
REMARK  136  A    between atoms: _339  and  _341
REMARK  137  A    between atoms: _341  and  _342
REMARK  138  A    between atoms: _341  and  _344
REMARK  139  A    between atoms: _347  and  _349
REMARK  140  A    between atoms: _349  and  _350
REMARK  141  A    between atoms: _349  and  _352
REMARK  142  A    between atoms: _352  and  _353
REMARK  143  A    between atoms: _358  and  _360
REMARK  144  A    between atoms: _360  and  _361
REMARK  145  A    between atoms: _360  and  _363
REMARK  146  A    between atoms: _363  and  _364
REMARK  147  A    between atoms: _374  and  _376
REMARK  148  A    between atoms: _376  and  _377
REMARK  149  A    between atoms: _379  and  _381
REMARK  150  A    between atoms: _381  and  _382
REMARK  151  A    between atoms: _381  and  _384
REMARK  152  A    between atoms: _384  and  _385
REMARK  153  A    between atoms: _385  and  _386
REMARK  154  A    between atoms: _386  and  _387
REMARK  155  A    between atoms: _396  and  _398
REMARK  156  A    between atoms: _398  and  _399
REMARK  157  A    between atoms: _398  and  _401
REMARK  158  A    between atoms: _401  and  _402
REMARK  159  A    between atoms: _405  and  _407
REMARK  160  A    between atoms: _407  and  _408
REMARK  161  A    between atoms: _407  and  _410
REMARK  162  A    between atoms: _413  and  _415
REMARK  163  A    between atoms: _415  and  _416
REMARK  164  A    between atoms: _419  and  _421
REMARK  165  A    between atoms: _421  and  _422
REMARK  166  A    between atoms: _421  and  _424
REMARK  167  A    between atoms: _424  and  _425
REMARK  168  A    between atoms: _431  and  _433
REMARK  169  A    between atoms: _433  and  _434
REMARK  170  A    between atoms: _433  and  _436
REMARK  171  A    between atoms: _436  and  _437
REMARK  172  A    between atoms: _443  and  _445
REMARK  173  A    between atoms: _445  and  _446
REMARK  174  A    between atoms: _445  and  _448
REMARK  175  A    between atoms: _448  and  _449
REMARK  176  A    between atoms: _449  and  _450
REMARK  177  A    between atoms: _453  and  _455
REMARK  178  A    between atoms: _455  and  _456
REMARK  179  A    between atoms: _455  and  _458
REMARK  180  A    between atoms: _458  and  _459
REMARK  181  A    between atoms: _465  and  _467
REMARK  182  A    between atoms: _467  and  _468
REMARK  183  A    between atoms: _470  and  _472
REMARK  184  A    between atoms: _472  and  _473
REMARK  185  A    between atoms: _475  and  _477
REMARK  186  A    between atoms: _477  and  _478
REMARK  187  A    between atoms: _477  and  _480
REMARK  188  A    between atoms: _483  and  _485
REMARK  189  A    between atoms: _485  and  _486
REMARK  190  A    between atoms: _485  and  _488
REMARK  191  A    between atoms: _488  and  _489
REMARK  192  A    between atoms: _489  and  _490
REMARK  193  A    between atoms: _492  and  _494
REMARK  194  A    between atoms: _494  and  _495
REMARK  195  A    between atoms: _494  and  _497
REMARK  196  A    between atoms: _497  and  _498
REMARK  197  A    between atoms: _508  and  _510
REMARK  198  A    between atoms: _510  and  _511
REMARK  199  A    between atoms: _510  and  _513
REMARK  200  A    between atoms: _513  and  _514
REMARK  201  A    between atoms: _524  and  _526
REMARK  202  A    between atoms: _526  and  _527
REMARK  203  A    between atoms: _530  and  _532
REMARK  204  A    between atoms: _532  and  _533
REMARK  205  A    between atoms: _532  and  _535
REMARK  206  A    between atoms: _535  and  _536
REMARK  207  A    between atoms: _542  and  _544
REMARK  208  A    between atoms: _544  and  _545
REMARK  209  A    between atoms: _544  and  _547
REMARK  210  A    between atoms: _550  and  _552
REMARK  211  A    between atoms: _552  and  _553
REMARK  212  A    between atoms: _552  and  _555
REMARK  213  A    between atoms: _555  and  _556
REMARK  214  A    between atoms: _556  and  _557
REMARK  215  A    between atoms: _560  and  _562
REMARK  216  A    between atoms: _562  and  _563
REMARK  217  A    between atoms: _562  and  _565
REMARK  218  A    between atoms: _565  and  _566
REMARK  219  A    between atoms: _569  and  _571
REMARK  220  A    between atoms: _571  and  _572
REMARK  221  A    between atoms: _571  and  _574
REMARK  222  A    between atoms: _574  and  _575
REMARK  223  A    between atoms: _580  and  _581
REMARK  224  A    between atoms: _583  and  _585
REMARK  225  A    between atoms: _585  and  _586
REMARK  226  A    between atoms: _589  and  _590
REMARK                            x       y       z     vdW  Elec       q    Type
REMARK                         _______ _______ _______ _____ _____    ______ ____
ROOT
ATOM      1  O   HOH     1      16.596  -9.309  -4.032  0.00  0.00    +0.000 OA
ENDROOT
TORSDOF 0
REMARK  Name = ../refined-set-2016/4lvt/4lvt_pocket.pdb
REMARK  226 active torsions:
REMARK  status: ('A' for Active; 'I' for Inactive)
REMARK    1  A    between atoms: _1  and  _3
REMARK    2  A    between atoms: _3  and  _4
REMARK    3  A    between atoms: _3  and  _6
REMARK    4  A    between atoms: _6  and  _7
REMARK    5  A    between atoms: _12  and  _13
REMARK    6  A    between atoms: _15  and  _17
REMARK    7  A    between atoms: _17  and  _18
REMARK    8  A    between atoms: _17  and  _20
REMARK    9  A    between atoms: _20  and  _21
REMARK   10  A    between atoms: _24  and  _26
REMARK   11  A    between atoms: _26  and  _27
REMARK   12  A    between atoms: _26  and  _29
REMARK   13  A    between atoms: _29  and  _30
REMARK   14  A    between atoms: _33  and  _35
REMARK   15  A    between atoms: _35  and  _36
REMARK   16  A    between atoms: _35  and  _38
REMARK   17  A    between atoms: _38  and  _39
REMARK   18  A    between atoms: _39  and  _40
REMARK   19  A    between atoms: _45  and  _47
REMARK   20  A    between atoms: _47  and  _48
REMARK   21  A    between atoms: _51  and  _53
REMARK   22  A    between atoms: _53  and  _54
REMARK   23  A    between atoms: _56  and  _58
REMARK   24  A    between atoms: _58  and  _59
REMARK   25  A    between atoms: _58  and  _61
REMARK   26  A    between atoms: _61  and  _62
REMARK   27  A    between atoms: _65  and  _67
REMARK   28  A    between atoms: _67  and  _68
REMARK   29  A    between atoms: _67  and  _70
REMARK   30  A    between atoms: _70  and  _71
REMARK   31  A    between atoms: _74  and  _76
REMARK   32  A    between atoms: _76  and  _77
REMARK   33  A    between atoms: _76  and  _79
REMARK   34  A    between atoms: _79  and  _80
REMARK   35  A    between atoms: _86  and  _88
REMARK   36  A    between atoms: _88  and  _89
REMARK   37  A    between atoms: _88  and  _91
REMARK   38  A    between atoms: _91  and  _92
REMARK   39  A    between atoms: _94  and  _96
REMARK   40  A    between atoms: _96  and  _97
REMARK   41  A    between atoms: _96  and  _99
REMARK   42  A    between atoms: _99  and  _100
REMARK   43  A    between atoms: _100  and  _101
REMARK   44  A    between atoms: _101  and  _102
REMARK   45  A    between atoms: _111  and  _113
REMARK   46  A    between atoms: _113  and  _114
REMARK   47  A    between atoms: _113  and  _116
REMARK   48  A    between atoms: _116  and  _117
REMARK   49  A    between atoms: _117  and  _118
REMARK   50  A    between atoms: _118  and  _119
REMARK   51  A    between atoms: _128  and  _130
REMARK   52  A    between atoms: _130  and  _131
REMARK   53  A    between atoms: _130  and  _133
REMARK   54  A    between atoms: _133  and  _134
REMARK   55  A    between atoms: _139  and  _140
REMARK   56  A    between atoms: _142  and  _144
REMARK   57  A    between atoms: _144  and  _145
REMARK   58  A    between atoms: _144  and  _147
REMARK   59  A    between atoms: _147  and  _148
REMARK   60  A    between atoms: _148  and  _149
REMARK   61  A    between atoms: _149  and  _150
REMARK   62  A    between atoms: _159  and  _161
REMARK   63  A    between atoms: _161  and  _162
REMARK   64  A    between atoms: _161  and  _164
REMARK   65  A    between atoms: _164  and  _165
REMARK   66  A    between atoms: _165  and  _166
REMARK   67  A    between atoms: _166  and  _167
REMARK   68  A    between atoms: _176  and  _178
REMARK   69  A    between atoms: _178  and  _179
REMARK   70  A    between atoms: _178  and  _181
REMARK   71  A    between atoms: _181  and  _182
REMARK   72  A    between atoms: _185  and  _187
REMARK   73  A    between atoms: _187  and  _188
REMARK   74  A    between atoms: _187  and  _190
REMARK   75  A    between atoms: _190  and  _191
REMARK   76  A    between atoms: _197  and  _199
REMARK   77  A    between atoms: _199  and  _200
REMARK   78  A    between atoms: _203  and  _205
REMARK   79  A    between atoms: _205  and  _206
REMARK   80  A    between atoms: _205  and  _208
REMARK   81  A    between atoms: _208  and  _209
REMARK   82  A    between atoms: _209  and  _210
REMARK   83  A    between atoms: _213  and  _215
REMARK   84  A    between atoms: _215  and  _216
REMARK   85  A    between atoms: _215  and  _218
REMARK   86  A    between atoms: _218  and  _219
REMARK   87  A    between atoms: _219  and  _220
REMARK   88  A    between atoms: _222  and  _224
REMARK   89  A    between atoms: _224  and  _225
REMARK   90  A    between atoms: _224  and  _227
REMARK   91  A    between atoms: _227  and  _228
REMARK   92  A    between atoms: _230  and  _232
REMARK   93  A    between atoms: _232  and  _233
REMARK   94  A    between atoms: _232  and  _235
REMARK   95  A    between atoms: _235  and  _236
REMARK   96  A    between atoms: _236  and  _237
REMARK   97  A    between atoms: _237  and  _238
REMARK   98  A    between atoms: _247  and  _249
REMARK   99  A    between atoms: _249  and  _250
REMARK  100  A    between atoms: _249  and  _252
REMARK  101  A    between atoms: _252  and  _253
REMARK  102  A    between atoms: _256  and  _258
REMARK  103  A    between atoms: _258  and  _259
REMARK  104  A    between atoms: _258  and  _261
REMARK  105  A    between atoms: _264  and  _266
REMARK  106  A    between atoms: _266  and  _267
REMARK  107  A    between atoms: _266  and  _269
REMARK  108  A    between atoms: _272  and  _274
REMARK  109  A    between atoms: _274  and  _275
REMARK  110  A    between atoms: _274  and  _277
REMARK  111  A    between atoms: _277  and  _278
REMARK  112  A    between atoms: _278  and  _279
REMARK  113  A    between atoms: _282  and  _284
REMARK  114  A    between atoms: _284  and  _285
REMARK  115  A    between atoms: _284  and  _287
REMARK  116  A    between atoms: _287  and  _288
REMARK  117  A    between atoms: _288  and  _289
REMARK  118  A    between atoms: _292  and  _294
REMARK  119  A    between atoms: _294  and  _295
REMARK  120  A    between atoms: _294  and  _297
REMARK  121  A    between atoms: _297  and  _298
REMARK  122  A    between atoms: _301  and  _303
REMARK  123  A    between atoms: _303  and  _304
REMARK  124  A    between atoms: _303  and  _306
REMARK  125  A    between atoms: _306  and  _307
REMARK  126  A    between atoms: _313  and  _315
REMARK  127  A    between atoms: _315  and  _316
REMARK  128  A    between atoms: _315  and  _318
REMARK  129  A    between atoms: _318  and  _319
REMARK  130  A    between atoms: _319  and  _320
REMARK  131  A    between atoms: _320  and  _321
REMARK  132  A    between atoms: _330  and  _332
REMARK  133  A    between atoms: _332  and  _333
REMARK  134  A    between atoms: _332  and  _335
REMARK  135  A    between atoms: _335  and  _336
REMARK  136  A    between atoms: _339  and  _341
REMARK  137  A    between atoms: _341  and  _342
REMARK  138  A    between atoms: _341  and  _344
REMARK  139  A    between atoms: _347  and  _349
REMARK  140  A    between atoms: _349  and  _350
REMARK  141  A    between atoms: _349  and  _352
REMARK  142  A    between atoms: _352  and  _353
REMARK  143  A    between atoms: _358  and  _360
REMARK  144  A    between atoms: _360  and  _361
REMARK  145  A    between atoms: _360  and  _363
REMARK  146  A    between atoms: _363  and  _364
REMARK  147  A    between atoms: _374  and  _376
REMARK  148  A    between atoms: _376  and  _377
REMARK  149  A    between atoms: _379  and  _381
REMARK  150  A    between atoms: _381  and  _382
REMARK  151  A    between atoms: _381  and  _384
REMARK  152  A    between atoms: _384  and  _385
REMARK  153  A    between atoms: _385  and  _386
REMARK  154  A    between atoms: _386  and  _387
REMARK  155  A    between atoms: _396  and  _398
REMARK  156  A    between atoms: _398  and  _399
REMARK  157  A    between atoms: _398  and  _401
REMARK  158  A    between atoms: _401  and  _402
REMARK  159  A    between atoms: _405  and  _407
REMARK  160  A    between atoms: _407  and  _408
REMARK  161  A    between atoms: _407  and  _410
REMARK  162  A    between atoms: _413  and  _415
REMARK  163  A    between atoms: _415  and  _416
REMARK  164  A    between atoms: _419  and  _421
REMARK  165  A    between atoms: _421  and  _422
REMARK  166  A    between atoms: _421  and  _424
REMARK  167  A    between atoms: _424  and  _425
REMARK  168  A    between atoms: _431  and  _433
REMARK  169  A    between atoms: _433  and  _434
REMARK  170  A    between atoms: _433  and  _436
REMARK  171  A    between atoms: _436  and  _437
REMARK  172  A    between atoms: _443  and  _445
REMARK  173  A    between atoms: _445  and  _446
REMARK  174  A    between atoms: _445  and  _448
REMARK  175  A    between atoms: _448  and  _449
REMARK  176  A    between atoms: _449  and  _450
REMARK  177  A    between atoms: _453  and  _455
REMARK  178  A    between atoms: _455  and  _456
REMARK  179  A    between atoms: _455  and  _458
REMARK  180  A    between atoms: _458  and  _459
REMARK  181  A    between atoms: _465  and  _467
REMARK  182  A    between atoms: _467  and  _468
REMARK  183  A    between atoms: _470  and  _472
REMARK  184  A    between atoms: _472  and  _473
REMARK  185  A    between atoms: _475  and  _477
REMARK  186  A    between atoms: _477  and  _478
REMARK  187  A    between atoms: _477  and  _480
REMARK  188  A    between atoms: _483  and  _485
REMARK  189  A    between atoms: _485  and  _486
REMARK  190  A    between atoms: _485  and  _488
REMARK  191  A    between atoms: _488  and  _489
REMARK  192  A    between atoms: _489  and  _490
REMARK  193  A    between atoms: _492  and  _494
REMARK  194  A    between atoms: _494  and  _495
REMARK  195  A    between atoms: _494  and  _497
REMARK  196  A    between atoms: _497  and  _498
REMARK  197  A    between atoms: _508  and  _510
REMARK  198  A    between atoms: _510  and  _511
REMARK  199  A    between atoms: _510  and  _513
REMARK  200  A    between atoms: _513  and  _514
REMARK  201  A    between atoms: _524  and  _526
REMARK  202  A    between atoms: _526  and  _527
REMARK  203  A    between atoms: _530  and  _532
REMARK  204  A    between atoms: _532  and  _533
REMARK  205  A    between atoms: _532  and  _535
REMARK  206  A    between atoms: _535  and  _536
REMARK  207  A    between atoms: _542  and  _544
REMARK  208  A    between atoms: _544  and  _545
REMARK  209  A    between atoms: _544  and  _547
REMARK  210  A    between atoms: _550  and  _552
REMARK  211  A    between atoms: _552  and  _553
REMARK  212  A    between atoms: _552  and  _555
REMARK  213  A    between atoms: _555  and  _556
REMARK  214  A    between atoms: _556  and  _557
REMARK  215  A    between atoms: _560  and  _562
REMARK  216  A    between atoms: _562  and  _563
REMARK  217  A    between atoms: _562  and  _565
REMARK  218  A    between atoms: _565  and  _566
REMARK  219  A    between atoms: _569  and  _571
REMARK  220  A    between atoms: _571  and  _572
REMARK  221  A    between atoms: _571  and  _574
REMARK  222  A    between atoms: _574  and  _575
REMARK  223  A    between atoms: _580  and  _581
REMARK  224  A    between atoms: _583  and  _585
REMARK  225  A    between atoms: _585  and  _586
REMARK  226  A    between atoms: _589  and  _590
REMARK                            x       y       z     vdW  Elec       q    Type
REMARK                         _______ _______ _______ _____ _____    ______ ____
ROOT
ATOM      1  O   HOH     1       4.930   3.256 -11.938  0.00  0.00    +0.000 OA
ENDROOT
TORSDOF 0
REMARK  Name = ../refined-set-2016/4lvt/4lvt_pocket.pdb
REMARK  226 active torsions:
REMARK  status: ('A' for Active; 'I' for Inactive)
REMARK    1  A    between atoms: _1  and  _3
REMARK    2  A    between atoms: _3  and  _4
REMARK    3  A    between atoms: _3  and  _6
REMARK    4  A    between atoms: _6  and  _7
REMARK    5  A    between atoms: _12  and  _13
REMARK    6  A    between atoms: _15  and  _17
REMARK    7  A    between atoms: _17  and  _18
REMARK    8  A    between atoms: _17  and  _20
REMARK    9  A    between atoms: _20  and  _21
REMARK   10  A    between atoms: _24  and  _26
REMARK   11  A    between atoms: _26  and  _27
REMARK   12  A    between atoms: _26  and  _29
REMARK   13  A    between atoms: _29  and  _30
REMARK   14  A    between atoms: _33  and  _35
REMARK   15  A    between atoms: _35  and  _36
REMARK   16  A    between atoms: _35  and  _38
REMARK   17  A    between atoms: _38  and  _39
REMARK   18  A    between atoms: _39  and  _40
REMARK   19  A    between atoms: _45  and  _47
REMARK   20  A    between atoms: _47  and  _48
REMARK   21  A    between atoms: _51  and  _53
REMARK   22  A    between atoms: _53  and  _54
REMARK   23  A    between atoms: _56  and  _58
REMARK   24  A    between atoms: _58  and  _59
REMARK   25  A    between atoms: _58  and  _61
REMARK   26  A    between atoms: _61  and  _62
REMARK   27  A    between atoms: _65  and  _67
REMARK   28  A    between atoms: _67  and  _68
REMARK   29  A    between atoms: _67  and  _70
REMARK   30  A    between atoms: _70  and  _71
REMARK   31  A    between atoms: _74  and  _76
REMARK   32  A    between atoms: _76  and  _77
REMARK   33  A    between atoms: _76  and  _79
REMARK   34  A    between atoms: _79  and  _80
REMARK   35  A    between atoms: _86  and  _88
REMARK   36  A    between atoms: _88  and  _89
REMARK   37  A    between atoms: _88  and  _91
REMARK   38  A    between atoms: _91  and  _92
REMARK   39  A    between atoms: _94  and  _96
REMARK   40  A    between atoms: _96  and  _97
REMARK   41  A    between atoms: _96  and  _99
REMARK   42  A    between atoms: _99  and  _100
REMARK   43  A    between atoms: _100  and  _101
REMARK   44  A    between atoms: _101  and  _102
REMARK   45  A    between atoms: _111  and  _113
REMARK   46  A    between atoms: _113  and  _114
REMARK   47  A    between atoms: _113  and  _116
REMARK   48  A    between atoms: _116  and  _117
REMARK   49  A    between atoms: _117  and  _118
REMARK   50  A    between atoms: _118  and  _119
REMARK   51  A    between atoms: _128  and  _130
REMARK   52  A    between atoms: _130  and  _131
REMARK   53  A    between atoms: _130  and  _133
REMARK   54  A    between atoms: _133  and  _134
REMARK   55  A    between atoms: _139  and  _140
REMARK   56  A    between atoms: _142  and  _144
REMARK   57  A    between atoms: _144  and  _145
REMARK   58  A    between atoms: _144  and  _147
REMARK   59  A    between atoms: _147  and  _148
REMARK   60  A    between atoms: _148  and  _149
REMARK   61  A    between atoms: _149  and  _150
REMARK   62  A    between atoms: _159  and  _161
REMARK   63  A    between atoms: _161  and  _162
REMARK   64  A    between atoms: _161  and  _164
REMARK   65  A    between atoms: _164  and  _165
REMARK   66  A    between atoms: _165  and  _166
REMARK   67  A    between atoms: _166  and  _167
REMARK   68  A    between atoms: _176  and  _178
REMARK   69  A    between atoms: _178  and  _179
REMARK   70  A    between atoms: _178  and  _181
REMARK   71  A    between atoms: _181  and  _182
REMARK   72  A    between atoms: _185  and  _187
REMARK   73  A    between atoms: _187  and  _188
REMARK   74  A    between atoms: _187  and  _190
REMARK   75  A    between atoms: _190  and  _191
REMARK   76  A    between atoms: _197  and  _199
REMARK   77  A    between atoms: _199  and  _200
REMARK   78  A    between atoms: _203  and  _205
REMARK   79  A    between atoms: _205  and  _206
REMARK   80  A    between atoms: _205  and  _208
REMARK   81  A    between atoms: _208  and  _209
REMARK   82  A    between atoms: _209  and  _210
REMARK   83  A    between atoms: _213  and  _215
REMARK   84  A    between atoms: _215  and  _216
REMARK   85  A    between atoms: _215  and  _218
REMARK   86  A    between atoms: _218  and  _219
REMARK   87  A    between atoms: _219  and  _220
REMARK   88  A    between atoms: _222  and  _224
REMARK   89  A    between atoms: _224  and  _225
REMARK   90  A    between atoms: _224  and  _227
REMARK   91  A    between atoms: _227  and  _228
REMARK   92  A    between atoms: _230  and  _232
REMARK   93  A    between atoms: _232  and  _233
REMARK   94  A    between atoms: _232  and  _235
REMARK   95  A    between atoms: _235  and  _236
REMARK   96  A    between atoms: _236  and  _237
REMARK   97  A    between atoms: _237  and  _238
REMARK   98  A    between atoms: _247  and  _249
REMARK   99  A    between atoms: _249  and  _250
REMARK  100  A    between atoms: _249  and  _252
REMARK  101  A    between atoms: _252  and  _253
REMARK  102  A    between atoms: _256  and  _258
REMARK  103  A    between atoms: _258  and  _259
REMARK  104  A    between atoms: _258  and  _261
REMARK  105  A    between atoms: _264  and  _266
REMARK  106  A    between atoms: _266  and  _267
REMARK  107  A    between atoms: _266  and  _269
REMARK  108  A    between atoms: _272  and  _274
REMARK  109  A    between atoms: _274  and  _275
REMARK  110  A    between atoms: _274  and  _277
REMARK  111  A    between atoms: _277  and  _278
REMARK  112  A    between atoms: _278  and  _279
REMARK  113  A    between atoms: _282  and  _284
REMARK  114  A    between atoms: _284  and  _285
REMARK  115  A    between atoms: _284  and  _287
REMARK  116  A    between atoms: _287  and  _288
REMARK  117  A    between atoms: _288  and  _289
REMARK  118  A    between atoms: _292  and  _294
REMARK  119  A    between atoms: _294  and  _295
REMARK  120  A    between atoms: _294  and  _297
REMARK  121  A    between atoms: _297  and  _298
REMARK  122  A    between atoms: _301  and  _303
REMARK  123  A    between atoms: _303  and  _304
REMARK  124  A    between atoms: _303  and  _306
REMARK  125  A    between atoms: _306  and  _307
REMARK  126  A    between atoms: _313  and  _315
REMARK  127  A    between atoms: _315  and  _316
REMARK  128  A    between atoms: _315  and  _318
REMARK  129  A    between atoms: _318  and  _319
REMARK  130  A    between atoms: _319  and  _320
REMARK  131  A    between atoms: _320  and  _321
REMARK  132  A    between atoms: _330  and  _332
REMARK  133  A    between atoms: _332  and  _333
REMARK  134  A    between atoms: _332  and  _335
REMARK  135  A    between atoms: _335  and  _336
REMARK  136  A    between atoms: _339  and  _341
REMARK  137  A    between atoms: _341  and  _342
REMARK  138  A    between atoms: _341  and  _344
REMARK  139  A    between atoms: _347  and  _349
REMARK  140  A    between atoms: _349  and  _350
REMARK  141  A    between atoms: _349  and  _352
REMARK  142  A    between atoms: _352  and  _353
REMARK  143  A    between atoms: _358  and  _360
REMARK  144  A    between atoms: _360  and  _361
REMARK  145  A    between atoms: _360  and  _363
REMARK  146  A    between atoms: _363  and  _364
REMARK  147  A    between atoms: _374  and  _376
REMARK  148  A    between atoms: _376  and  _377
REMARK  149  A    between atoms: _379  and  _381
REMARK  150  A    between atoms: _381  and  _382
REMARK  151  A    between atoms: _381  and  _384
REMARK  152  A    between atoms: _384  and  _385
REMARK  153  A    between atoms: _385  and  _386
REMARK  154  A    between atoms: _386  and  _387
REMARK  155  A    between atoms: _396  and  _398
REMARK  156  A    between atoms: _398  and  _399
REMARK  157  A    between atoms: _398  and  _401
REMARK  158  A    between atoms: _401  and  _402
REMARK  159  A    between atoms: _405  and  _407
REMARK  160  A    between atoms: _407  and  _408
REMARK  161  A    between atoms: _407  and  _410
REMARK  162  A    between atoms: _413  and  _415
REMARK  163  A    between atoms: _415  and  _416
REMARK  164  A    between atoms: _419  and  _421
REMARK  165  A    between atoms: _421  and  _422
REMARK  166  A    between atoms: _421  and  _424
REMARK  167  A    between atoms: _424  and  _425
REMARK  168  A    between atoms: _431  and  _433
REMARK  169  A    between atoms: _433  and  _434
REMARK  170  A    between atoms: _433  and  _436
REMARK  171  A    between atoms: _436  and  _437
REMARK  172  A    between atoms: _443  and  _445
REMARK  173  A    between atoms: _445  and  _446
REMARK  174  A    between atoms: _445  and  _448
REMARK  175  A    between atoms: _448  and  _449
REMARK  176  A    between atoms: _449  and  _450
REMARK  177  A    between atoms: _453  and  _455
REMARK  178  A    between atoms: _455  and  _456
REMARK  179  A    between atoms: _455  and  _458
REMARK  180  A    between atoms: _458  and  _459
REMARK  181  A    between atoms: _465  and  _467
REMARK  182  A    between atoms: _467  and  _468
REMARK  183  A    between atoms: _470  and  _472
REMARK  184  A    between atoms: _472  and  _473
REMARK  185  A    between atoms: _475  and  _477
REMARK  186  A    between atoms: _477  and  _478
REMARK  187  A    between atoms: _477  and  _480
REMARK  188  A    between atoms: _483  and  _485
REMARK  189  A    between atoms: _485  and  _486
REMARK  190  A    between atoms: _485  and  _488
REMARK  191  A    between atoms: _488  and  _489
REMARK  192  A    between atoms: _489  and  _490
REMARK  193  A    between atoms: _492  and  _494
REMARK  194  A    between atoms: _494  and  _495
REMARK  195  A    between atoms: _494  and  _497
REMARK  196  A    between atoms: _497  and  _498
REMARK  197  A    between atoms: _508  and  _510
REMARK  198  A    between atoms: _510  and  _511
REMARK  199  A    between atoms: _510  and  _513
REMARK  200  A    between atoms: _513  and  _514
REMARK  201  A    between atoms: _524  and  _526
REMARK  202  A    between atoms: _526  and  _527
REMARK  203  A    between atoms: _530  and  _532
REMARK  204  A    between atoms: _532  and  _533
REMARK  205  A    between atoms: _532  and  _535
REMARK  206  A    between atoms: _535  and  _536
REMARK  207  A    between atoms: _542  and  _544
REMARK  208  A    between atoms: _544  and  _545
REMARK  209  A    between atoms: _544  and  _547
REMARK  210  A    between atoms: _550  and  _552
REMARK  211  A    between atoms: _552  and  _553
REMARK  212  A    between atoms: _552  and  _555
REMARK  213  A    between atoms: _555  and  _556
REMARK  214  A    between atoms: _556  and  _557
REMARK  215  A    between atoms: _560  and  _562
REMARK  216  A    between atoms: _562  and  _563
REMARK  217  A    between atoms: _562  and  _565
REMARK  218  A    between atoms: _565  and  _566
REMARK  219  A    between atoms: _569  and  _571
REMARK  220  A    between atoms: _571  and  _572
REMARK  221  A    between atoms: _571  and  _574
REMARK  222  A    between atoms: _574  and  _575
REMARK  223  A    between atoms: _580  and  _581
REMARK  224  A    between atoms: _583  and  _585
REMARK  225  A    between atoms: _585  and  _586
REMARK  226  A    between atoms: _589  and  _590
REMARK                            x       y       z     vdW  Elec       q    Type
REMARK                         _______ _______ _______ _____ _____    ______ ____
ROOT
ATOM      1  O   HOH     1      12.355   8.712  -5.416  0.00  0.00    +0.000 OA
ENDROOT
TORSDOF 0
REMARK  Name = ../refined-set-2016/4lvt/4lvt_pocket.pdb
REMARK  226 active torsions:
REMARK  status: ('A' for Active; 'I' for Inactive)
REMARK    1  A    between atoms: _1  and  _3
REMARK    2  A    between atoms: _3  and  _4
REMARK    3  A    between atoms: _3  and  _6
REMARK    4  A    between atoms: _6  and  _7
REMARK    5  A    between atoms: _12  and  _13
REMARK    6  A    between atoms: _15  and  _17
REMARK    7  A    between atoms: _17  and  _18
REMARK    8  A    between atoms: _17  and  _20
REMARK    9  A    between atoms: _20  and  _21
REMARK   10  A    between atoms: _24  and  _26
REMARK   11  A    between atoms: _26  and  _27
REMARK   12  A    between atoms: _26  and  _29
REMARK   13  A    between atoms: _29  and  _30
REMARK   14  A    between atoms: _33  and  _35
REMARK   15  A    between atoms: _35  and  _36
REMARK   16  A    between atoms: _35  and  _38
REMARK   17  A    between atoms: _38  and  _39
REMARK   18  A    between atoms: _39  and  _40
REMARK   19  A    between atoms: _45  and  _47
REMARK   20  A    between atoms: _47  and  _48
REMARK   21  A    between atoms: _51  and  _53
REMARK   22  A    between atoms: _53  and  _54
REMARK   23  A    between atoms: _56  and  _58
REMARK   24  A    between atoms: _58  and  _59
REMARK   25  A    between atoms: _58  and  _61
REMARK   26  A    between atoms: _61  and  _62
REMARK   27  A    between atoms: _65  and  _67
REMARK   28  A    between atoms: _67  and  _68
REMARK   29  A    between atoms: _67  and  _70
REMARK   30  A    between atoms: _70  and  _71
REMARK   31  A    between atoms: _74  and  _76
REMARK   32  A    between atoms: _76  and  _77
REMARK   33  A    between atoms: _76  and  _79
REMARK   34  A    between atoms: _79  and  _80
REMARK   35  A    between atoms: _86  and  _88
REMARK   36  A    between atoms: _88  and  _89
REMARK   37  A    between atoms: _88  and  _91
REMARK   38  A    between atoms: _91  and  _92
REMARK   39  A    between atoms: _94  and  _96
REMARK   40  A    between atoms: _96  and  _97
REMARK   41  A    between atoms: _96  and  _99
REMARK   42  A    between atoms: _99  and  _100
REMARK   43  A    between atoms: _100  and  _101
REMARK   44  A    between atoms: _101  and  _102
REMARK   45  A    between atoms: _111  and  _113
REMARK   46  A    between atoms: _113  and  _114
REMARK   47  A    between atoms: _113  and  _116
REMARK   48  A    between atoms: _116  and  _117
REMARK   49  A    between atoms: _117  and  _118
REMARK   50  A    between atoms: _118  and  _119
REMARK   51  A    between atoms: _128  and  _130
REMARK   52  A    between atoms: _130  and  _131
REMARK   53  A    between atoms: _130  and  _133
REMARK   54  A    between atoms: _133  and  _134
REMARK   55  A    between atoms: _139  and  _140
REMARK   56  A    between atoms: _142  and  _144
REMARK   57  A    between atoms: _144  and  _145
REMARK   58  A    between atoms: _144  and  _147
REMARK   59  A    between atoms: _147  and  _148
REMARK   60  A    between atoms: _148  and  _149
REMARK   61  A    between atoms: _149  and  _150
REMARK   62  A    between atoms: _159  and  _161
REMARK   63  A    between atoms: _161  and  _162
REMARK   64  A    between atoms: _161  and  _164
REMARK   65  A    between atoms: _164  and  _165
REMARK   66  A    between atoms: _165  and  _166
REMARK   67  A    between atoms: _166  and  _167
REMARK   68  A    between atoms: _176  and  _178
REMARK   69  A    between atoms: _178  and  _179
REMARK   70  A    between atoms: _178  and  _181
REMARK   71  A    between atoms: _181  and  _182
REMARK   72  A    between atoms: _185  and  _187
REMARK   73  A    between atoms: _187  and  _188
REMARK   74  A    between atoms: _187  and  _190
REMARK   75  A    between atoms: _190  and  _191
REMARK   76  A    between atoms: _197  and  _199
REMARK   77  A    between atoms: _199  and  _200
REMARK   78  A    between atoms: _203  and  _205
REMARK   79  A    between atoms: _205  and  _206
REMARK   80  A    between atoms: _205  and  _208
REMARK   81  A    between atoms: _208  and  _209
REMARK   82  A    between atoms: _209  and  _210
REMARK   83  A    between atoms: _213  and  _215
REMARK   84  A    between atoms: _215  and  _216
REMARK   85  A    between atoms: _215  and  _218
REMARK   86  A    between atoms: _218  and  _219
REMARK   87  A    between atoms: _219  and  _220
REMARK   88  A    between atoms: _222  and  _224
REMARK   89  A    between atoms: _224  and  _225
REMARK   90  A    between atoms: _224  and  _227
REMARK   91  A    between atoms: _227  and  _228
REMARK   92  A    between atoms: _230  and  _232
REMARK   93  A    between atoms: _232  and  _233
REMARK   94  A    between atoms: _232  and  _235
REMARK   95  A    between atoms: _235  and  _236
REMARK   96  A    between atoms: _236  and  _237
REMARK   97  A    between atoms: _237  and  _238
REMARK   98  A    between atoms: _247  and  _249
REMARK   99  A    between atoms: _249  and  _250
REMARK  100  A    between atoms: _249  and  _252
REMARK  101  A    between atoms: _252  and  _253
REMARK  102  A    between atoms: _256  and  _258
REMARK  103  A    between atoms: _258  and  _259
REMARK  104  A    between atoms: _258  and  _261
REMARK  105  A    between atoms: _264  and  _266
REMARK  106  A    between atoms: _266  and  _267
REMARK  107  A    between atoms: _266  and  _269
REMARK  108  A    between atoms: _272  and  _274
REMARK  109  A    between atoms: _274  and  _275
REMARK  110  A    between atoms: _274  and  _277
REMARK  111  A    between atoms: _277  and  _278
REMARK  112  A    between atoms: _278  and  _279
REMARK  113  A    between atoms: _282  and  _284
REMARK  114  A    between atoms: _284  and  _285
REMARK  115  A    between atoms: _284  and  _287
REMARK  116  A    between atoms: _287  and  _288
REMARK  117  A    between atoms: _288  and  _289
REMARK  118  A    between atoms: _292  and  _294
REMARK  119  A    between atoms: _294  and  _295
REMARK  120  A    between atoms: _294  and  _297
REMARK  121  A    between atoms: _297  and  _298
REMARK  122  A    between atoms: _301  and  _303
REMARK  123  A    between atoms: _303  and  _304
REMARK  124  A    between atoms: _303  and  _306
REMARK  125  A    between atoms: _306  and  _307
REMARK  126  A    between atoms: _313  and  _315
REMARK  127  A    between atoms: _315  and  _316
REMARK  128  A    between atoms: _315  and  _318
REMARK  129  A    between atoms: _318  and  _319
REMARK  130  A    between atoms: _319  and  _320
REMARK  131  A    between atoms: _320  and  _321
REMARK  132  A    between atoms: _330  and  _332
REMARK  133  A    between atoms: _332  and  _333
REMARK  134  A    between atoms: _332  and  _335
REMARK  135  A    between atoms: _335  and  _336
REMARK  136  A    between atoms: _339  and  _341
REMARK  137  A    between atoms: _341  and  _342
REMARK  138  A    between atoms: _341  and  _344
REMARK  139  A    between atoms: _347  and  _349
REMARK  140  A    between atoms: _349  and  _350
REMARK  141  A    between atoms: _349  and  _352
REMARK  142  A    between atoms: _352  and  _353
REMARK  143  A    between atoms: _358  and  _360
REMARK  144  A    between atoms: _360  and  _361
REMARK  145  A    between atoms: _360  and  _363
REMARK  146  A    between atoms: _363  and  _364
REMARK  147  A    between atoms: _374  and  _376
REMARK  148  A    between atoms: _376  and  _377
REMARK  149  A    between atoms: _379  and  _381
REMARK  150  A    between atoms: _381  and  _382
REMARK  151  A    between atoms: _381  and  _384
REMARK  152  A    between atoms: _384  and  _385
REMARK  153  A    between atoms: _385  and  _386
REMARK  154  A    between atoms: _386  and  _387
REMARK  155  A    between atoms: _396  and  _398
REMARK  156  A    between atoms: _398  and  _399
REMARK  157  A    between atoms: _398  and  _401
REMARK  158  A    between atoms: _401  and  _402
REMARK  159  A    between atoms: _405  and  _407
REMARK  160  A    between atoms: _407  and  _408
REMARK  161  A    between atoms: _407  and  _410
REMARK  162  A    between atoms: _413  and  _415
REMARK  163  A    between atoms: _415  and  _416
REMARK  164  A    between atoms: _419  and  _421
REMARK  165  A    between atoms: _421  and  _422
REMARK  166  A    between atoms: _421  and  _424
REMARK  167  A    between atoms: _424  and  _425
REMARK  168  A    between atoms: _431  and  _433
REMARK  169  A    between atoms: _433  and  _434
REMARK  170  A    between atoms: _433  and  _436
REMARK  171  A    between atoms: _436  and  _437
REMARK  172  A    between atoms: _443  and  _445
REMARK  173  A    between atoms: _445  and  _446
REMARK  174  A    between atoms: _445  and  _448
REMARK  175  A    between atoms: _448  and  _449
REMARK  176  A    between atoms: _449  and  _450
REMARK  177  A    between atoms: _453  and  _455
REMARK  178  A    between atoms: _455  and  _456
REMARK  179  A    between atoms: _455  and  _458
REMARK  180  A    between atoms: _458  and  _459
REMARK  181  A    between atoms: _465  and  _467
REMARK  182  A    between atoms: _467  and  _468
REMARK  183  A    between atoms: _470  and  _472
REMARK  184  A    between atoms: _472  and  _473
REMARK  185  A    between atoms: _475  and  _477
REMARK  186  A    between atoms: _477  and  _478
REMARK  187  A    between atoms: _477  and  _480
REMARK  188  A    between atoms: _483  and  _485
REMARK  189  A    between atoms: _485  and  _486
REMARK  190  A    between atoms: _485  and  _488
REMARK  191  A    between atoms: _488  and  _489
REMARK  192  A    between atoms: _489  and  _490
REMARK  193  A    between atoms: _492  and  _494
REMARK  194  A    between atoms: _494  and  _495
REMARK  195  A    between atoms: _494  and  _497
REMARK  196  A    between atoms: _497  and  _498
REMARK  197  A    between atoms: _508  and  _510
REMARK  198  A    between atoms: _510  and  _511
REMARK  199  A    between atoms: _510  and  _513
REMARK  200  A    between atoms: _513  and  _514
REMARK  201  A    between atoms: _524  and  _526
REMARK  202  A    between atoms: _526  and  _527
REMARK  203  A    between atoms: _530  and  _532
REMARK  204  A    between atoms: _532  and  _533
REMARK  205  A    between atoms: _532  and  _535
REMARK  206  A    between atoms: _535  and  _536
REMARK  207  A    between atoms: _542  and  _544
REMARK  208  A    between atoms: _544  and  _545
REMARK  209  A    between atoms: _544  and  _547
REMARK  210  A    between atoms: _550  and  _552
REMARK  211  A    between atoms: _552  and  _553
REMARK  212  A    between atoms: _552  and  _555
REMARK  213  A    between atoms: _555  and  _556
REMARK  214  A    between atoms: _556  and  _557
REMARK  215  A    between atoms: _560  and  _562
REMARK  216  A    between atoms: _562  and  _563
REMARK  217  A    between atoms: _562  and  _565
REMARK  218  A    between atoms: _565  and  _566
REMARK  219  A    between atoms: _569  and  _571
REMARK  220  A    between atoms: _571  and  _572
REMARK  221  A    between atoms: _571  and  _574
REMARK  222  A    between atoms: _574  and  _575
REMARK  223  A    between atoms: _580  and  _581
REMARK  224  A    between atoms: _583  and  _585
REMARK  225  A    between atoms: _585  and  _586
REMARK  226  A    between atoms: _589  and  _590
REMARK                            x       y       z     vdW  Elec       q    Type
REMARK                         _______ _______ _______ _____ _____    ______ ____
ROOT
ATOM      1  O   HOH     1       0.738   5.665 -11.053  0.00  0.00    +0.000 OA
ENDROOT
TORSDOF 0
REMARK  Name = ../refined-set-2016/4lvt/4lvt_pocket.pdb
REMARK  226 active torsions:
REMARK  status: ('A' for Active; 'I' for Inactive)
REMARK    1  A    between atoms: _1  and  _3
REMARK    2  A    between atoms: _3  and  _4
REMARK    3  A    between atoms: _3  and  _6
REMARK    4  A    between atoms: _6  and  _7
REMARK    5  A    between atoms: _12  and  _13
REMARK    6  A    between atoms: _15  and  _17
REMARK    7  A    between atoms: _17  and  _18
REMARK    8  A    between atoms: _17  and  _20
REMARK    9  A    between atoms: _20  and  _21
REMARK   10  A    between atoms: _24  and  _26
REMARK   11  A    between atoms: _26  and  _27
REMARK   12  A    between atoms: _26  and  _29
REMARK   13  A    between atoms: _29  and  _30
REMARK   14  A    between atoms: _33  and  _35
REMARK   15  A    between atoms: _35  and  _36
REMARK   16  A    between atoms: _35  and  _38
REMARK   17  A    between atoms: _38  and  _39
REMARK   18  A    between atoms: _39  and  _40
REMARK   19  A    between atoms: _45  and  _47
REMARK   20  A    between atoms: _47  and  _48
REMARK   21  A    between atoms: _51  and  _53
REMARK   22  A    between atoms: _53  and  _54
REMARK   23  A    between atoms: _56  and  _58
REMARK   24  A    between atoms: _58  and  _59
REMARK   25  A    between atoms: _58  and  _61
REMARK   26  A    between atoms: _61  and  _62
REMARK   27  A    between atoms: _65  and  _67
REMARK   28  A    between atoms: _67  and  _68
REMARK   29  A    between atoms: _67  and  _70
REMARK   30  A    between atoms: _70  and  _71
REMARK   31  A    between atoms: _74  and  _76
REMARK   32  A    between atoms: _76  and  _77
REMARK   33  A    between atoms: _76  and  _79
REMARK   34  A    between atoms: _79  and  _80
REMARK   35  A    between atoms: _86  and  _88
REMARK   36  A    between atoms: _88  and  _89
REMARK   37  A    between atoms: _88  and  _91
REMARK   38  A    between atoms: _91  and  _92
REMARK   39  A    between atoms: _94  and  _96
REMARK   40  A    between atoms: _96  and  _97
REMARK   41  A    between atoms: _96  and  _99
REMARK   42  A    between atoms: _99  and  _100
REMARK   43  A    between atoms: _100  and  _101
REMARK   44  A    between atoms: _101  and  _102
REMARK   45  A    between atoms: _111  and  _113
REMARK   46  A    between atoms: _113  and  _114
REMARK   47  A    between atoms: _113  and  _116
REMARK   48  A    between atoms: _116  and  _117
REMARK   49  A    between atoms: _117  and  _118
REMARK   50  A    between atoms: _118  and  _119
REMARK   51  A    between atoms: _128  and  _130
REMARK   52  A    between atoms: _130  and  _131
REMARK   53  A    between atoms: _130  and  _133
REMARK   54  A    between atoms: _133  and  _134
REMARK   55  A    between atoms: _139  and  _140
REMARK   56  A    between atoms: _142  and  _144
REMARK   57  A    between atoms: _144  and  _145
REMARK   58  A    between atoms: _144  and  _147
REMARK   59  A    between atoms: _147  and  _148
REMARK   60  A    between atoms: _148  and  _149
REMARK   61  A    between atoms: _149  and  _150
REMARK   62  A    between atoms: _159  and  _161
REMARK   63  A    between atoms: _161  and  _162
REMARK   64  A    between atoms: _161  and  _164
REMARK   65  A    between atoms: _164  and  _165
REMARK   66  A    between atoms: _165  and  _166
REMARK   67  A    between atoms: _166  and  _167
REMARK   68  A    between atoms: _176  and  _178
REMARK   69  A    between atoms: _178  and  _179
REMARK   70  A    between atoms: _178  and  _181
REMARK   71  A    between atoms: _181  and  _182
REMARK   72  A    between atoms: _185  and  _187
REMARK   73  A    between atoms: _187  and  _188
REMARK   74  A    between atoms: _187  and  _190
REMARK   75  A    between atoms: _190  and  _191
REMARK   76  A    between atoms: _197  and  _199
REMARK   77  A    between atoms: _199  and  _200
REMARK   78  A    between atoms: _203  and  _205
REMARK   79  A    between atoms: _205  and  _206
REMARK   80  A    between atoms: _205  and  _208
REMARK   81  A    between atoms: _208  and  _209
REMARK   82  A    between atoms: _209  and  _210
REMARK   83  A    between atoms: _213  and  _215
REMARK   84  A    between atoms: _215  and  _216
REMARK   85  A    between atoms: _215  and  _218
REMARK   86  A    between atoms: _218  and  _219
REMARK   87  A    between atoms: _219  and  _220
REMARK   88  A    between atoms: _222  and  _224
REMARK   89  A    between atoms: _224  and  _225
REMARK   90  A    between atoms: _224  and  _227
REMARK   91  A    between atoms: _227  and  _228
REMARK   92  A    between atoms: _230  and  _232
REMARK   93  A    between atoms: _232  and  _233
REMARK   94  A    between atoms: _232  and  _235
REMARK   95  A    between atoms: _235  and  _236
REMARK   96  A    between atoms: _236  and  _237
REMARK   97  A    between atoms: _237  and  _238
REMARK   98  A    between atoms: _247  and  _249
REMARK   99  A    between atoms: _249  and  _250
REMARK  100  A    between atoms: _249  and  _252
REMARK  101  A    between atoms: _252  and  _253
REMARK  102  A    between atoms: _256  and  _258
REMARK  103  A    between atoms: _258  and  _259
REMARK  104  A    between atoms: _258  and  _261
REMARK  105  A    between atoms: _264  and  _266
REMARK  106  A    between atoms: _266  and  _267
REMARK  107  A    between atoms: _266  and  _269
REMARK  108  A    between atoms: _272  and  _274
REMARK  109  A    between atoms: _274  and  _275
REMARK  110  A    between atoms: _274  and  _277
REMARK  111  A    between atoms: _277  and  _278
REMARK  112  A    between atoms: _278  and  _279
REMARK  113  A    between atoms: _282  and  _284
REMARK  114  A    between atoms: _284  and  _285
REMARK  115  A    between atoms: _284  and  _287
REMARK  116  A    between atoms: _287  and  _288
REMARK  117  A    between atoms: _288  and  _289
REMARK  118  A    between atoms: _292  and  _294
REMARK  119  A    between atoms: _294  and  _295
REMARK  120  A    between atoms: _294  and  _297
REMARK  121  A    between atoms: _297  and  _298
REMARK  122  A    between atoms: _301  and  _303
REMARK  123  A    between atoms: _303  and  _304
REMARK  124  A    between atoms: _303  and  _306
REMARK  125  A    between atoms: _306  and  _307
REMARK  126  A    between atoms: _313  and  _315
REMARK  127  A    between atoms: _315  and  _316
REMARK  128  A    between atoms: _315  and  _318
REMARK  129  A    between atoms: _318  and  _319
REMARK  130  A    between atoms: _319  and  _320
REMARK  131  A    between atoms: _320  and  _321
REMARK  132  A    between atoms: _330  and  _332
REMARK  133  A    between atoms: _332  and  _333
REMARK  134  A    between atoms: _332  and  _335
REMARK  135  A    between atoms: _335  and  _336
REMARK  136  A    between atoms: _339  and  _341
REMARK  137  A    between atoms: _341  and  _342
REMARK  138  A    between atoms: _341  and  _344
REMARK  139  A    between atoms: _347  and  _349
REMARK  140  A    between atoms: _349  and  _350
REMARK  141  A    between atoms: _349  and  _352
REMARK  142  A    between atoms: _352  and  _353
REMARK  143  A    between atoms: _358  and  _360
REMARK  144  A    between atoms: _360  and  _361
REMARK  145  A    between atoms: _360  and  _363
REMARK  146  A    between atoms: _363  and  _364
REMARK  147  A    between atoms: _374  and  _376
REMARK  148  A    between atoms: _376  and  _377
REMARK  149  A    between atoms: _379  and  _381
REMARK  150  A    between atoms: _381  and  _382
REMARK  151  A    between atoms: _381  and  _384
REMARK  152  A    between atoms: _384  and  _385
REMARK  153  A    between atoms: _385  and  _386
REMARK  154  A    between atoms: _386  and  _387
REMARK  155  A    between atoms: _396  and  _398
REMARK  156  A    between atoms: _398  and  _399
REMARK  157  A    between atoms: _398  and  _401
REMARK  158  A    between atoms: _401  and  _402
REMARK  159  A    between atoms: _405  and  _407
REMARK  160  A    between atoms: _407  and  _408
REMARK  161  A    between atoms: _407  and  _410
REMARK  162  A    between atoms: _413  and  _415
REMARK  163  A    between atoms: _415  and  _416
REMARK  164  A    between atoms: _419  and  _421
REMARK  165  A    between atoms: _421  and  _422
REMARK  166  A    between atoms: _421  and  _424
REMARK  167  A    between atoms: _424  and  _425
REMARK  168  A    between atoms: _431  and  _433
REMARK  169  A    between atoms: _433  and  _434
REMARK  170  A    between atoms: _433  and  _436
REMARK  171  A    between atoms: _436  and  _437
REMARK  172  A    between atoms: _443  and  _445
REMARK  173  A    between atoms: _445  and  _446
REMARK  174  A    between atoms: _445  and  _448
REMARK  175  A    between atoms: _448  and  _449
REMARK  176  A    between atoms: _449  and  _450
REMARK  177  A    between atoms: _453  and  _455
REMARK  178  A    between atoms: _455  and  _456
REMARK  179  A    between atoms: _455  and  _458
REMARK  180  A    between atoms: _458  and  _459
REMARK  181  A    between atoms: _465  and  _467
REMARK  182  A    between atoms: _467  and  _468
REMARK  183  A    between atoms: _470  and  _472
REMARK  184  A    between atoms: _472  and  _473
REMARK  185  A    between atoms: _475  and  _477
REMARK  186  A    between atoms: _477  and  _478
REMARK  187  A    between atoms: _477  and  _480
REMARK  188  A    between atoms: _483  and  _485
REMARK  189  A    between atoms: _485  and  _486
REMARK  190  A    between atoms: _485  and  _488
REMARK  191  A    between atoms: _488  and  _489
REMARK  192  A    between atoms: _489  and  _490
REMARK  193  A    between atoms: _492  and  _494
REMARK  194  A    between atoms: _494  and  _495
REMARK  195  A    between atoms: _494  and  _497
REMARK  196  A    between atoms: _497  and  _498
REMARK  197  A    between atoms: _508  and  _510
REMARK  198  A    between atoms: _510  and  _511
REMARK  199  A    between atoms: _510  and  _513
REMARK  200  A    between atoms: _513  and  _514
REMARK  201  A    between atoms: _524  and  _526
REMARK  202  A    between atoms: _526  and  _527
REMARK  203  A    between atoms: _530  and  _532
REMARK  204  A    between atoms: _532  and  _533
REMARK  205  A    between atoms: _532  and  _535
REMARK  206  A    between atoms: _535  and  _536
REMARK  207  A    between atoms: _542  and  _544
REMARK  208  A    between atoms: _544  and  _545
REMARK  209  A    between atoms: _544  and  _547
REMARK  210  A    between atoms: _550  and  _552
REMARK  211  A    between atoms: _552  and  _553
REMARK  212  A    between atoms: _552  and  _555
REMARK  213  A    between atoms: _555  and  _556
REMARK  214  A    between atoms: _556  and  _557
REMARK  215  A    between atoms: _560  and  _562
REMARK  216  A    between atoms: _562  and  _563
REMARK  217  A    between atoms: _562  and  _565
REMARK  218  A    between atoms: _565  and  _566
REMARK  219  A    between atoms: _569  and  _571
REMARK  220  A    between atoms: _571  and  _572
REMARK  221  A    between atoms: _571  and  _574
REMARK  222  A    between atoms: _574  and  _575
REMARK  223  A    between atoms: _580  and  _581
REMARK  224  A    between atoms: _583  and  _585
REMARK  225  A    between atoms: _585  and  _586
REMARK  226  A    between atoms: _589  and  _590
REMARK                            x       y       z     vdW  Elec       q    Type
REMARK                         _______ _______ _______ _____ _____    ______ ____
ROOT
ATOM      1  O   HOH     1      13.852  -3.216   1.278  0.00  0.00    +0.000 OA
ENDROOT
TORSDOF 0
REMARK  Name = ../refined-set-2016/4lvt/4lvt_pocket.pdb
REMARK  226 active torsions:
REMARK  status: ('A' for Active; 'I' for Inactive)
REMARK    1  A    between atoms: _1  and  _3
REMARK    2  A    between atoms: _3  and  _4
REMARK    3  A    between atoms: _3  and  _6
REMARK    4  A    between atoms: _6  and  _7
REMARK    5  A    between atoms: _12  and  _13
REMARK    6  A    between atoms: _15  and  _17
REMARK    7  A    between atoms: _17  and  _18
REMARK    8  A    between atoms: _17  and  _20
REMARK    9  A    between atoms: _20  and  _21
REMARK   10  A    between atoms: _24  and  _26
REMARK   11  A    between atoms: _26  and  _27
REMARK   12  A    between atoms: _26  and  _29
REMARK   13  A    between atoms: _29  and  _30
REMARK   14  A    between atoms: _33  and  _35
REMARK   15  A    between atoms: _35  and  _36
REMARK   16  A    between atoms: _35  and  _38
REMARK   17  A    between atoms: _38  and  _39
REMARK   18  A    between atoms: _39  and  _40
REMARK   19  A    between atoms: _45  and  _47
REMARK   20  A    between atoms: _47  and  _48
REMARK   21  A    between atoms: _51  and  _53
REMARK   22  A    between atoms: _53  and  _54
REMARK   23  A    between atoms: _56  and  _58
REMARK   24  A    between atoms: _58  and  _59
REMARK   25  A    between atoms: _58  and  _61
REMARK   26  A    between atoms: _61  and  _62
REMARK   27  A    between atoms: _65  and  _67
REMARK   28  A    between atoms: _67  and  _68
REMARK   29  A    between atoms: _67  and  _70
REMARK   30  A    between atoms: _70  and  _71
REMARK   31  A    between atoms: _74  and  _76
REMARK   32  A    between atoms: _76  and  _77
REMARK   33  A    between atoms: _76  and  _79
REMARK   34  A    between atoms: _79  and  _80
REMARK   35  A    between atoms: _86  and  _88
REMARK   36  A    between atoms: _88  and  _89
REMARK   37  A    between atoms: _88  and  _91
REMARK   38  A    between atoms: _91  and  _92
REMARK   39  A    between atoms: _94  and  _96
REMARK   40  A    between atoms: _96  and  _97
REMARK   41  A    between atoms: _96  and  _99
REMARK   42  A    between atoms: _99  and  _100
REMARK   43  A    between atoms: _100  and  _101
REMARK   44  A    between atoms: _101  and  _102
REMARK   45  A    between atoms: _111  and  _113
REMARK   46  A    between atoms: _113  and  _114
REMARK   47  A    between atoms: _113  and  _116
REMARK   48  A    between atoms: _116  and  _117
REMARK   49  A    between atoms: _117  and  _118
REMARK   50  A    between atoms: _118  and  _119
REMARK   51  A    between atoms: _128  and  _130
REMARK   52  A    between atoms: _130  and  _131
REMARK   53  A    between atoms: _130  and  _133
REMARK   54  A    between atoms: _133  and  _134
REMARK   55  A    between atoms: _139  and  _140
REMARK   56  A    between atoms: _142  and  _144
REMARK   57  A    between atoms: _144  and  _145
REMARK   58  A    between atoms: _144  and  _147
REMARK   59  A    between atoms: _147  and  _148
REMARK   60  A    between atoms: _148  and  _149
REMARK   61  A    between atoms: _149  and  _150
REMARK   62  A    between atoms: _159  and  _161
REMARK   63  A    between atoms: _161  and  _162
REMARK   64  A    between atoms: _161  and  _164
REMARK   65  A    between atoms: _164  and  _165
REMARK   66  A    between atoms: _165  and  _166
REMARK   67  A    between atoms: _166  and  _167
REMARK   68  A    between atoms: _176  and  _178
REMARK   69  A    between atoms: _178  and  _179
REMARK   70  A    between atoms: _178  and  _181
REMARK   71  A    between atoms: _181  and  _182
REMARK   72  A    between atoms: _185  and  _187
REMARK   73  A    between atoms: _187  and  _188
REMARK   74  A    between atoms: _187  and  _190
REMARK   75  A    between atoms: _190  and  _191
REMARK   76  A    between atoms: _197  and  _199
REMARK   77  A    between atoms: _199  and  _200
REMARK   78  A    between atoms: _203  and  _205
REMARK   79  A    between atoms: _205  and  _206
REMARK   80  A    between atoms: _205  and  _208
REMARK   81  A    between atoms: _208  and  _209
REMARK   82  A    between atoms: _209  and  _210
REMARK   83  A    between atoms: _213  and  _215
REMARK   84  A    between atoms: _215  and  _216
REMARK   85  A    between atoms: _215  and  _218
REMARK   86  A    between atoms: _218  and  _219
REMARK   87  A    between atoms: _219  and  _220
REMARK   88  A    between atoms: _222  and  _224
REMARK   89  A    between atoms: _224  and  _225
REMARK   90  A    between atoms: _224  and  _227
REMARK   91  A    between atoms: _227  and  _228
REMARK   92  A    between atoms: _230  and  _232
REMARK   93  A    between atoms: _232  and  _233
REMARK   94  A    between atoms: _232  and  _235
REMARK   95  A    between atoms: _235  and  _236
REMARK   96  A    between atoms: _236  and  _237
REMARK   97  A    between atoms: _237  and  _238
REMARK   98  A    between atoms: _247  and  _249
REMARK   99  A    between atoms: _249  and  _250
REMARK  100  A    between atoms: _249  and  _252
REMARK  101  A    between atoms: _252  and  _253
REMARK  102  A    between atoms: _256  and  _258
REMARK  103  A    between atoms: _258  and  _259
REMARK  104  A    between atoms: _258  and  _261
REMARK  105  A    between atoms: _264  and  _266
REMARK  106  A    between atoms: _266  and  _267
REMARK  107  A    between atoms: _266  and  _269
REMARK  108  A    between atoms: _272  and  _274
REMARK  109  A    between atoms: _274  and  _275
REMARK  110  A    between atoms: _274  and  _277
REMARK  111  A    between atoms: _277  and  _278
REMARK  112  A    between atoms: _278  and  _279
REMARK  113  A    between atoms: _282  and  _284
REMARK  114  A    between atoms: _284  and  _285
REMARK  115  A    between atoms: _284  and  _287
REMARK  116  A    between atoms: _287  and  _288
REMARK  117  A    between atoms: _288  and  _289
REMARK  118  A    between atoms: _292  and  _294
REMARK  119  A    between atoms: _294  and  _295
REMARK  120  A    between atoms: _294  and  _297
REMARK  121  A    between atoms: _297  and  _298
REMARK  122  A    between atoms: _301  and  _303
REMARK  123  A    between atoms: _303  and  _304
REMARK  124  A    between atoms: _303  and  _306
REMARK  125  A    between atoms: _306  and  _307
REMARK  126  A    between atoms: _313  and  _315
REMARK  127  A    between atoms: _315  and  _316
REMARK  128  A    between atoms: _315  and  _318
REMARK  129  A    between atoms: _318  and  _319
REMARK  130  A    between atoms: _319  and  _320
REMARK  131  A    between atoms: _320  and  _321
REMARK  132  A    between atoms: _330  and  _332
REMARK  133  A    between atoms: _332  and  _333
REMARK  134  A    between atoms: _332  and  _335
REMARK  135  A    between atoms: _335  and  _336
REMARK  136  A    between atoms: _339  and  _341
REMARK  137  A    between atoms: _341  and  _342
REMARK  138  A    between atoms: _341  and  _344
REMARK  139  A    between atoms: _347  and  _349
REMARK  140  A    between atoms: _349  and  _350
REMARK  141  A    between atoms: _349  and  _352
REMARK  142  A    between atoms: _352  and  _353
REMARK  143  A    between atoms: _358  and  _360
REMARK  144  A    between atoms: _360  and  _361
REMARK  145  A    between atoms: _360  and  _363
REMARK  146  A    between atoms: _363  and  _364
REMARK  147  A    between atoms: _374  and  _376
REMARK  148  A    between atoms: _376  and  _377
REMARK  149  A    between atoms: _379  and  _381
REMARK  150  A    between atoms: _381  and  _382
REMARK  151  A    between atoms: _381  and  _384
REMARK  152  A    between atoms: _384  and  _385
REMARK  153  A    between atoms: _385  and  _386
REMARK  154  A    between atoms: _386  and  _387
REMARK  155  A    between atoms: _396  and  _398
REMARK  156  A    between atoms: _398  and  _399
REMARK  157  A    between atoms: _398  and  _401
REMARK  158  A    between atoms: _401  and  _402
REMARK  159  A    between atoms: _405  and  _407
REMARK  160  A    between atoms: _407  and  _408
REMARK  161  A    between atoms: _407  and  _410
REMARK  162  A    between atoms: _413  and  _415
REMARK  163  A    between atoms: _415  and  _416
REMARK  164  A    between atoms: _419  and  _421
REMARK  165  A    between atoms: _421  and  _422
REMARK  166  A    between atoms: _421  and  _424
REMARK  167  A    between atoms: _424  and  _425
REMARK  168  A    between atoms: _431  and  _433
REMARK  169  A    between atoms: _433  and  _434
REMARK  170  A    between atoms: _433  and  _436
REMARK  171  A    between atoms: _436  and  _437
REMARK  172  A    between atoms: _443  and  _445
REMARK  173  A    between atoms: _445  and  _446
REMARK  174  A    between atoms: _445  and  _448
REMARK  175  A    between atoms: _448  and  _449
REMARK  176  A    between atoms: _449  and  _450
REMARK  177  A    between atoms: _453  and  _455
REMARK  178  A    between atoms: _455  and  _456
REMARK  179  A    between atoms: _455  and  _458
REMARK  180  A    between atoms: _458  and  _459
REMARK  181  A    between atoms: _465  and  _467
REMARK  182  A    between atoms: _467  and  _468
REMARK  183  A    between atoms: _470  and  _472
REMARK  184  A    between atoms: _472  and  _473
REMARK  185  A    between atoms: _475  and  _477
REMARK  186  A    between atoms: _477  and  _478
REMARK  187  A    between atoms: _477  and  _480
REMARK  188  A    between atoms: _483  and  _485
REMARK  189  A    between atoms: _485  and  _486
REMARK  190  A    between atoms: _485  and  _488
REMARK  191  A    between atoms: _488  and  _489
REMARK  192  A    between atoms: _489  and  _490
REMARK  193  A    between atoms: _492  and  _494
REMARK  194  A    between atoms: _494  and  _495
REMARK  195  A    between atoms: _494  and  _497
REMARK  196  A    between atoms: _497  and  _498
REMARK  197  A    between atoms: _508  and  _510
REMARK  198  A    between atoms: _510  and  _511
REMARK  199  A    between atoms: _510  and  _513
REMARK  200  A    between atoms: _513  and  _514
REMARK  201  A    between atoms: _524  and  _526
REMARK  202  A    between atoms: _526  and  _527
REMARK  203  A    between atoms: _530  and  _532
REMARK  204  A    between atoms: _532  and  _533
REMARK  205  A    between atoms: _532  and  _535
REMARK  206  A    between atoms: _535  and  _536
REMARK  207  A    between atoms: _542  and  _544
REMARK  208  A    between atoms: _544  and  _545
REMARK  209  A    between atoms: _544  and  _547
REMARK  210  A    between atoms: _550  and  _552
REMARK  211  A    between atoms: _552  and  _553
REMARK  212  A    between atoms: _552  and  _555
REMARK  213  A    between atoms: _555  and  _556
REMARK  214  A    between atoms: _556  and  _557
REMARK  215  A    between atoms: _560  and  _562
REMARK  216  A    between atoms: _562  and  _563
REMARK  217  A    between atoms: _562  and  _565
REMARK  218  A    between atoms: _565  and  _566
REMARK  219  A    between atoms: _569  and  _571
REMARK  220  A    between atoms: _571  and  _572
REMARK  221  A    between atoms: _571  and  _574
REMARK  222  A    between atoms: _574  and  _575
REMARK  223  A    between atoms: _580  and  _581
REMARK  224  A    between atoms: _583  and  _585
REMARK  225  A    between atoms: _585  and  _586
REMARK  226  A    between atoms: _589  and  _590
REMARK                            x       y       z     vdW  Elec       q    Type
REMARK                         _______ _______ _______ _____ _____    ______ ____
ROOT
ATOM      1  O   HOH     1      11.874  -5.876 -12.349  0.00  0.00    +0.000 OA
ENDROOT
TORSDOF 0
REMARK  Name = ../refined-set-2016/4lvt/4lvt_pocket.pdb
REMARK  226 active torsions:
REMARK  status: ('A' for Active; 'I' for Inactive)
REMARK    1  A    between atoms: _1  and  _3
REMARK    2  A    between atoms: _3  and  _4
REMARK    3  A    between atoms: _3  and  _6
REMARK    4  A    between atoms: _6  and  _7
REMARK    5  A    between atoms: _12  and  _13
REMARK    6  A    between atoms: _15  and  _17
REMARK    7  A    between atoms: _17  and  _18
REMARK    8  A    between atoms: _17  and  _20
REMARK    9  A    between atoms: _20  and  _21
REMARK   10  A    between atoms: _24  and  _26
REMARK   11  A    between atoms: _26  and  _27
REMARK   12  A    between atoms: _26  and  _29
REMARK   13  A    between atoms: _29  and  _30
REMARK   14  A    between atoms: _33  and  _35
REMARK   15  A    between atoms: _35  and  _36
REMARK   16  A    between atoms: _35  and  _38
REMARK   17  A    between atoms: _38  and  _39
REMARK   18  A    between atoms: _39  and  _40
REMARK   19  A    between atoms: _45  and  _47
REMARK   20  A    between atoms: _47  and  _48
REMARK   21  A    between atoms: _51  and  _53
REMARK   22  A    between atoms: _53  and  _54
REMARK   23  A    between atoms: _56  and  _58
REMARK   24  A    between atoms: _58  and  _59
REMARK   25  A    between atoms: _58  and  _61
REMARK   26  A    between atoms: _61  and  _62
REMARK   27  A    between atoms: _65  and  _67
REMARK   28  A    between atoms: _67  and  _68
REMARK   29  A    between atoms: _67  and  _70
REMARK   30  A    between atoms: _70  and  _71
REMARK   31  A    between atoms: _74  and  _76
REMARK   32  A    between atoms: _76  and  _77
REMARK   33  A    between atoms: _76  and  _79
REMARK   34  A    between atoms: _79  and  _80
REMARK   35  A    between atoms: _86  and  _88
REMARK   36  A    between atoms: _88  and  _89
REMARK   37  A    between atoms: _88  and  _91
REMARK   38  A    between atoms: _91  and  _92
REMARK   39  A    between atoms: _94  and  _96
REMARK   40  A    between atoms: _96  and  _97
REMARK   41  A    between atoms: _96  and  _99
REMARK   42  A    between atoms: _99  and  _100
REMARK   43  A    between atoms: _100  and  _101
REMARK   44  A    between atoms: _101  and  _102
REMARK   45  A    between atoms: _111  and  _113
REMARK   46  A    between atoms: _113  and  _114
REMARK   47  A    between atoms: _113  and  _116
REMARK   48  A    between atoms: _116  and  _117
REMARK   49  A    between atoms: _117  and  _118
REMARK   50  A    between atoms: _118  and  _119
REMARK   51  A    between atoms: _128  and  _130
REMARK   52  A    between atoms: _130  and  _131
REMARK   53  A    between atoms: _130  and  _133
REMARK   54  A    between atoms: _133  and  _134
REMARK   55  A    between atoms: _139  and  _140
REMARK   56  A    between atoms: _142  and  _144
REMARK   57  A    between atoms: _144  and  _145
REMARK   58  A    between atoms: _144  and  _147
REMARK   59  A    between atoms: _147  and  _148
REMARK   60  A    between atoms: _148  and  _149
REMARK   61  A    between atoms: _149  and  _150
REMARK   62  A    between atoms: _159  and  _161
REMARK   63  A    between atoms: _161  and  _162
REMARK   64  A    between atoms: _161  and  _164
REMARK   65  A    between atoms: _164  and  _165
REMARK   66  A    between atoms: _165  and  _166
REMARK   67  A    between atoms: _166  and  _167
REMARK   68  A    between atoms: _176  and  _178
REMARK   69  A    between atoms: _178  and  _179
REMARK   70  A    between atoms: _178  and  _181
REMARK   71  A    between atoms: _181  and  _182
REMARK   72  A    between atoms: _185  and  _187
REMARK   73  A    between atoms: _187  and  _188
REMARK   74  A    between atoms: _187  and  _190
REMARK   75  A    between atoms: _190  and  _191
REMARK   76  A    between atoms: _197  and  _199
REMARK   77  A    between atoms: _199  and  _200
REMARK   78  A    between atoms: _203  and  _205
REMARK   79  A    between atoms: _205  and  _206
REMARK   80  A    between atoms: _205  and  _208
REMARK   81  A    between atoms: _208  and  _209
REMARK   82  A    between atoms: _209  and  _210
REMARK   83  A    between atoms: _213  and  _215
REMARK   84  A    between atoms: _215  and  _216
REMARK   85  A    between atoms: _215  and  _218
REMARK   86  A    between atoms: _218  and  _219
REMARK   87  A    between atoms: _219  and  _220
REMARK   88  A    between atoms: _222  and  _224
REMARK   89  A    between atoms: _224  and  _225
REMARK   90  A    between atoms: _224  and  _227
REMARK   91  A    between atoms: _227  and  _228
REMARK   92  A    between atoms: _230  and  _232
REMARK   93  A    between atoms: _232  and  _233
REMARK   94  A    between atoms: _232  and  _235
REMARK   95  A    between atoms: _235  and  _236
REMARK   96  A    between atoms: _236  and  _237
REMARK   97  A    between atoms: _237  and  _238
REMARK   98  A    between atoms: _247  and  _249
REMARK   99  A    between atoms: _249  and  _250
REMARK  100  A    between atoms: _249  and  _252
REMARK  101  A    between atoms: _252  and  _253
REMARK  102  A    between atoms: _256  and  _258
REMARK  103  A    between atoms: _258  and  _259
REMARK  104  A    between atoms: _258  and  _261
REMARK  105  A    between atoms: _264  and  _266
REMARK  106  A    between atoms: _266  and  _267
REMARK  107  A    between atoms: _266  and  _269
REMARK  108  A    between atoms: _272  and  _274
REMARK  109  A    between atoms: _274  and  _275
REMARK  110  A    between atoms: _274  and  _277
REMARK  111  A    between atoms: _277  and  _278
REMARK  112  A    between atoms: _278  and  _279
REMARK  113  A    between atoms: _282  and  _284
REMARK  114  A    between atoms: _284  and  _285
REMARK  115  A    between atoms: _284  and  _287
REMARK  116  A    between atoms: _287  and  _288
REMARK  117  A    between atoms: _288  and  _289
REMARK  118  A    between atoms: _292  and  _294
REMARK  119  A    between atoms: _294  and  _295
REMARK  120  A    between atoms: _294  and  _297
REMARK  121  A    between atoms: _297  and  _298
REMARK  122  A    between atoms: _301  and  _303
REMARK  123  A    between atoms: _303  and  _304
REMARK  124  A    between atoms: _303  and  _306
REMARK  125  A    between atoms: _306  and  _307
REMARK  126  A    between atoms: _313  and  _315
REMARK  127  A    between atoms: _315  and  _316
REMARK  128  A    between atoms: _315  and  _318
REMARK  129  A    between atoms: _318  and  _319
REMARK  130  A    between atoms: _319  and  _320
REMARK  131  A    between atoms: _320  and  _321
REMARK  132  A    between atoms: _330  and  _332
REMARK  133  A    between atoms: _332  and  _333
REMARK  134  A    between atoms: _332  and  _335
REMARK  135  A    between atoms: _335  and  _336
REMARK  136  A    between atoms: _339  and  _341
REMARK  137  A    between atoms: _341  and  _342
REMARK  138  A    between atoms: _341  and  _344
REMARK  139  A    between atoms: _347  and  _349
REMARK  140  A    between atoms: _349  and  _350
REMARK  141  A    between atoms: _349  and  _352
REMARK  142  A    between atoms: _352  and  _353
REMARK  143  A    between atoms: _358  and  _360
REMARK  144  A    between atoms: _360  and  _361
REMARK  145  A    between atoms: _360  and  _363
REMARK  146  A    between atoms: _363  and  _364
REMARK  147  A    between atoms: _374  and  _376
REMARK  148  A    between atoms: _376  and  _377
REMARK  149  A    between atoms: _379  and  _381
REMARK  150  A    between atoms: _381  and  _382
REMARK  151  A    between atoms: _381  and  _384
REMARK  152  A    between atoms: _384  and  _385
REMARK  153  A    between atoms: _385  and  _386
REMARK  154  A    between atoms: _386  and  _387
REMARK  155  A    between atoms: _396  and  _398
REMARK  156  A    between atoms: _398  and  _399
REMARK  157  A    between atoms: _398  and  _401
REMARK  158  A    between atoms: _401  and  _402
REMARK  159  A    between atoms: _405  and  _407
REMARK  160  A    between atoms: _407  and  _408
REMARK  161  A    between atoms: _407  and  _410
REMARK  162  A    between atoms: _413  and  _415
REMARK  163  A    between atoms: _415  and  _416
REMARK  164  A    between atoms: _419  and  _421
REMARK  165  A    between atoms: _421  and  _422
REMARK  166  A    between atoms: _421  and  _424
REMARK  167  A    between atoms: _424  and  _425
REMARK  168  A    between atoms: _431  and  _433
REMARK  169  A    between atoms: _433  and  _434
REMARK  170  A    between atoms: _433  and  _436
REMARK  171  A    between atoms: _436  and  _437
REMARK  172  A    between atoms: _443  and  _445
REMARK  173  A    between atoms: _445  and  _446
REMARK  174  A    between atoms: _445  and  _448
REMARK  175  A    between atoms: _448  and  _449
REMARK  176  A    between atoms: _449  and  _450
REMARK  177  A    between atoms: _453  and  _455
REMARK  178  A    between atoms: _455  and  _456
REMARK  179  A    between atoms: _455  and  _458
REMARK  180  A    between atoms: _458  and  _459
REMARK  181  A    between atoms: _465  and  _467
REMARK  182  A    between atoms: _467  and  _468
REMARK  183  A    between atoms: _470  and  _472
REMARK  184  A    between atoms: _472  and  _473
REMARK  185  A    between atoms: _475  and  _477
REMARK  186  A    between atoms: _477  and  _478
REMARK  187  A    between atoms: _477  and  _480
REMARK  188  A    between atoms: _483  and  _485
REMARK  189  A    between atoms: _485  and  _486
REMARK  190  A    between atoms: _485  and  _488
REMARK  191  A    between atoms: _488  and  _489
REMARK  192  A    between atoms: _489  and  _490
REMARK  193  A    between atoms: _492  and  _494
REMARK  194  A    between atoms: _494  and  _495
REMARK  195  A    between atoms: _494  and  _497
REMARK  196  A    between atoms: _497  and  _498
REMARK  197  A    between atoms: _508  and  _510
REMARK  198  A    between atoms: _510  and  _511
REMARK  199  A    between atoms: _510  and  _513
REMARK  200  A    between atoms: _513  and  _514
REMARK  201  A    between atoms: _524  and  _526
REMARK  202  A    between atoms: _526  and  _527
REMARK  203  A    between atoms: _530  and  _532
REMARK  204  A    between atoms: _532  and  _533
REMARK  205  A    between atoms: _532  and  _535
REMARK  206  A    between atoms: _535  and  _536
REMARK  207  A    between atoms: _542  and  _544
REMARK  208  A    between atoms: _544  and  _545
REMARK  209  A    between atoms: _544  and  _547
REMARK  210  A    between atoms: _550  and  _552
REMARK  211  A    between atoms: _552  and  _553
REMARK  212  A    between atoms: _552  and  _555
REMARK  213  A    between atoms: _555  and  _556
REMARK  214  A    between atoms: _556  and  _557
REMARK  215  A    between atoms: _560  and  _562
REMARK  216  A    between atoms: _562  and  _563
REMARK  217  A    between atoms: _562  and  _565
REMARK  218  A    between atoms: _565  and  _566
REMARK  219  A    between atoms: _569  and  _571
REMARK  220  A    between atoms: _571  and  _572
REMARK  221  A    between atoms: _571  and  _574
REMARK  222  A    between atoms: _574  and  _575
REMARK  223  A    between atoms: _580  and  _581
REMARK  224  A    between atoms: _583  and  _585
REMARK  225  A    between atoms: _585  and  _586
REMARK  226  A    between atoms: _589  and  _590
REMARK                            x       y       z     vdW  Elec       q    Type
REMARK                         _______ _______ _______ _____ _____    ______ ____
ROOT
ATOM      1  O   HOH     1      15.400   3.603   4.197  0.00  0.00    +0.000 OA
ENDROOT
TORSDOF 0
REMARK  Name = ../refined-set-2016/4lvt/4lvt_pocket.pdb
REMARK  226 active torsions:
REMARK  status: ('A' for Active; 'I' for Inactive)
REMARK    1  A    between atoms: _1  and  _3
REMARK    2  A    between atoms: _3  and  _4
REMARK    3  A    between atoms: _3  and  _6
REMARK    4  A    between atoms: _6  and  _7
REMARK    5  A    between atoms: _12  and  _13
REMARK    6  A    between atoms: _15  and  _17
REMARK    7  A    between atoms: _17  and  _18
REMARK    8  A    between atoms: _17  and  _20
REMARK    9  A    between atoms: _20  and  _21
REMARK   10  A    between atoms: _24  and  _26
REMARK   11  A    between atoms: _26  and  _27
REMARK   12  A    between atoms: _26  and  _29
REMARK   13  A    between atoms: _29  and  _30
REMARK   14  A    between atoms: _33  and  _35
REMARK   15  A    between atoms: _35  and  _36
REMARK   16  A    between atoms: _35  and  _38
REMARK   17  A    between atoms: _38  and  _39
REMARK   18  A    between atoms: _39  and  _40
REMARK   19  A    between atoms: _45  and  _47
REMARK   20  A    between atoms: _47  and  _48
REMARK   21  A    between atoms: _51  and  _53
REMARK   22  A    between atoms: _53  and  _54
REMARK   23  A    between atoms: _56  and  _58
REMARK   24  A    between atoms: _58  and  _59
REMARK   25  A    between atoms: _58  and  _61
REMARK   26  A    between atoms: _61  and  _62
REMARK   27  A    between atoms: _65  and  _67
REMARK   28  A    between atoms: _67  and  _68
REMARK   29  A    between atoms: _67  and  _70
REMARK   30  A    between atoms: _70  and  _71
REMARK   31  A    between atoms: _74  and  _76
REMARK   32  A    between atoms: _76  and  _77
REMARK   33  A    between atoms: _76  and  _79
REMARK   34  A    between atoms: _79  and  _80
REMARK   35  A    between atoms: _86  and  _88
REMARK   36  A    between atoms: _88  and  _89
REMARK   37  A    between atoms: _88  and  _91
REMARK   38  A    between atoms: _91  and  _92
REMARK   39  A    between atoms: _94  and  _96
REMARK   40  A    between atoms: _96  and  _97
REMARK   41  A    between atoms: _96  and  _99
REMARK   42  A    between atoms: _99  and  _100
REMARK   43  A    between atoms: _100  and  _101
REMARK   44  A    between atoms: _101  and  _102
REMARK   45  A    between atoms: _111  and  _113
REMARK   46  A    between atoms: _113  and  _114
REMARK   47  A    between atoms: _113  and  _116
REMARK   48  A    between atoms: _116  and  _117
REMARK   49  A    between atoms: _117  and  _118
REMARK   50  A    between atoms: _118  and  _119
REMARK   51  A    between atoms: _128  and  _130
REMARK   52  A    between atoms: _130  and  _131
REMARK   53  A    between atoms: _130  and  _133
REMARK   54  A    between atoms: _133  and  _134
REMARK   55  A    between atoms: _139  and  _140
REMARK   56  A    between atoms: _142  and  _144
REMARK   57  A    between atoms: _144  and  _145
REMARK   58  A    between atoms: _144  and  _147
REMARK   59  A    between atoms: _147  and  _148
REMARK   60  A    between atoms: _148  and  _149
REMARK   61  A    between atoms: _149  and  _150
REMARK   62  A    between atoms: _159  and  _161
REMARK   63  A    between atoms: _161  and  _162
REMARK   64  A    between atoms: _161  and  _164
REMARK   65  A    between atoms: _164  and  _165
REMARK   66  A    between atoms: _165  and  _166
REMARK   67  A    between atoms: _166  and  _167
REMARK   68  A    between atoms: _176  and  _178
REMARK   69  A    between atoms: _178  and  _179
REMARK   70  A    between atoms: _178  and  _181
REMARK   71  A    between atoms: _181  and  _182
REMARK   72  A    between atoms: _185  and  _187
REMARK   73  A    between atoms: _187  and  _188
REMARK   74  A    between atoms: _187  and  _190
REMARK   75  A    between atoms: _190  and  _191
REMARK   76  A    between atoms: _197  and  _199
REMARK   77  A    between atoms: _199  and  _200
REMARK   78  A    between atoms: _203  and  _205
REMARK   79  A    between atoms: _205  and  _206
REMARK   80  A    between atoms: _205  and  _208
REMARK   81  A    between atoms: _208  and  _209
REMARK   82  A    between atoms: _209  and  _210
REMARK   83  A    between atoms: _213  and  _215
REMARK   84  A    between atoms: _215  and  _216
REMARK   85  A    between atoms: _215  and  _218
REMARK   86  A    between atoms: _218  and  _219
REMARK   87  A    between atoms: _219  and  _220
REMARK   88  A    between atoms: _222  and  _224
REMARK   89  A    between atoms: _224  and  _225
REMARK   90  A    between atoms: _224  and  _227
REMARK   91  A    between atoms: _227  and  _228
REMARK   92  A    between atoms: _230  and  _232
REMARK   93  A    between atoms: _232  and  _233
REMARK   94  A    between atoms: _232  and  _235
REMARK   95  A    between atoms: _235  and  _236
REMARK   96  A    between atoms: _236  and  _237
REMARK   97  A    between atoms: _237  and  _238
REMARK   98  A    between atoms: _247  and  _249
REMARK   99  A    between atoms: _249  and  _250
REMARK  100  A    between atoms: _249  and  _252
REMARK  101  A    between atoms: _252  and  _253
REMARK  102  A    between atoms: _256  and  _258
REMARK  103  A    between atoms: _258  and  _259
REMARK  104  A    between atoms: _258  and  _261
REMARK  105  A    between atoms: _264  and  _266
REMARK  106  A    between atoms: _266  and  _267
REMARK  107  A    between atoms: _266  and  _269
REMARK  108  A    between atoms: _272  and  _274
REMARK  109  A    between atoms: _274  and  _275
REMARK  110  A    between atoms: _274  and  _277
REMARK  111  A    between atoms: _277  and  _278
REMARK  112  A    between atoms: _278  and  _279
REMARK  113  A    between atoms: _282  and  _284
REMARK  114  A    between atoms: _284  and  _285
REMARK  115  A    between atoms: _284  and  _287
REMARK  116  A    between atoms: _287  and  _288
REMARK  117  A    between atoms: _288  and  _289
REMARK  118  A    between atoms: _292  and  _294
REMARK  119  A    between atoms: _294  and  _295
REMARK  120  A    between atoms: _294  and  _297
REMARK  121  A    between atoms: _297  and  _298
REMARK  122  A    between atoms: _301  and  _303
REMARK  123  A    between atoms: _303  and  _304
REMARK  124  A    between atoms: _303  and  _306
REMARK  125  A    between atoms: _306  and  _307
REMARK  126  A    between atoms: _313  and  _315
REMARK  127  A    between atoms: _315  and  _316
REMARK  128  A    between atoms: _315  and  _318
REMARK  129  A    between atoms: _318  and  _319
REMARK  130  A    between atoms: _319  and  _320
REMARK  131  A    between atoms: _320  and  _321
REMARK  132  A    between atoms: _330  and  _332
REMARK  133  A    between atoms: _332  and  _333
REMARK  134  A    between atoms: _332  and  _335
REMARK  135  A    between atoms: _335  and  _336
REMARK  136  A    between atoms: _339  and  _341
REMARK  137  A    between atoms: _341  and  _342
REMARK  138  A    between atoms: _341  and  _344
REMARK  139  A    between atoms: _347  and  _349
REMARK  140  A    between atoms: _349  and  _350
REMARK  141  A    between atoms: _349  and  _352
REMARK  142  A    between atoms: _352  and  _353
REMARK  143  A    between atoms: _358  and  _360
REMARK  144  A    between atoms: _360  and  _361
REMARK  145  A    between atoms: _360  and  _363
REMARK  146  A    between atoms: _363  and  _364
REMARK  147  A    between atoms: _374  and  _376
REMARK  148  A    between atoms: _376  and  _377
REMARK  149  A    between atoms: _379  and  _381
REMARK  150  A    between atoms: _381  and  _382
REMARK  151  A    between atoms: _381  and  _384
REMARK  152  A    between atoms: _384  and  _385
REMARK  153  A    between atoms: _385  and  _386
REMARK  154  A    between atoms: _386  and  _387
REMARK  155  A    between atoms: _396  and  _398
REMARK  156  A    between atoms: _398  and  _399
REMARK  157  A    between atoms: _398  and  _401
REMARK  158  A    between atoms: _401  and  _402
REMARK  159  A    between atoms: _405  and  _407
REMARK  160  A    between atoms: _407  and  _408
REMARK  161  A    between atoms: _407  and  _410
REMARK  162  A    between atoms: _413  and  _415
REMARK  163  A    between atoms: _415  and  _416
REMARK  164  A    between atoms: _419  and  _421
REMARK  165  A    between atoms: _421  and  _422
REMARK  166  A    between atoms: _421  and  _424
REMARK  167  A    between atoms: _424  and  _425
REMARK  168  A    between atoms: _431  and  _433
REMARK  169  A    between atoms: _433  and  _434
REMARK  170  A    between atoms: _433  and  _436
REMARK  171  A    between atoms: _436  and  _437
REMARK  172  A    between atoms: _443  and  _445
REMARK  173  A    between atoms: _445  and  _446
REMARK  174  A    between atoms: _445  and  _448
REMARK  175  A    between atoms: _448  and  _449
REMARK  176  A    between atoms: _449  and  _450
REMARK  177  A    between atoms: _453  and  _455
REMARK  178  A    between atoms: _455  and  _456
REMARK  179  A    between atoms: _455  and  _458
REMARK  180  A    between atoms: _458  and  _459
REMARK  181  A    between atoms: _465  and  _467
REMARK  182  A    between atoms: _467  and  _468
REMARK  183  A    between atoms: _470  and  _472
REMARK  184  A    between atoms: _472  and  _473
REMARK  185  A    between atoms: _475  and  _477
REMARK  186  A    between atoms: _477  and  _478
REMARK  187  A    between atoms: _477  and  _480
REMARK  188  A    between atoms: _483  and  _485
REMARK  189  A    between atoms: _485  and  _486
REMARK  190  A    between atoms: _485  and  _488
REMARK  191  A    between atoms: _488  and  _489
REMARK  192  A    between atoms: _489  and  _490
REMARK  193  A    between atoms: _492  and  _494
REMARK  194  A    between atoms: _494  and  _495
REMARK  195  A    between atoms: _494  and  _497
REMARK  196  A    between atoms: _497  and  _498
REMARK  197  A    between atoms: _508  and  _510
REMARK  198  A    between atoms: _510  and  _511
REMARK  199  A    between atoms: _510  and  _513
REMARK  200  A    between atoms: _513  and  _514
REMARK  201  A    between atoms: _524  and  _526
REMARK  202  A    between atoms: _526  and  _527
REMARK  203  A    between atoms: _530  and  _532
REMARK  204  A    between atoms: _532  and  _533
REMARK  205  A    between atoms: _532  and  _535
REMARK  206  A    between atoms: _535  and  _536
REMARK  207  A    between atoms: _542  and  _544
REMARK  208  A    between atoms: _544  and  _545
REMARK  209  A    between atoms: _544  and  _547
REMARK  210  A    between atoms: _550  and  _552
REMARK  211  A    between atoms: _552  and  _553
REMARK  212  A    between atoms: _552  and  _555
REMARK  213  A    between atoms: _555  and  _556
REMARK  214  A    between atoms: _556  and  _557
REMARK  215  A    between atoms: _560  and  _562
REMARK  216  A    between atoms: _562  and  _563
REMARK  217  A    between atoms: _562  and  _565
REMARK  218  A    between atoms: _565  and  _566
REMARK  219  A    between atoms: _569  and  _571
REMARK  220  A    between atoms: _571  and  _572
REMARK  221  A    between atoms: _571  and  _574
REMARK  222  A    between atoms: _574  and  _575
REMARK  223  A    between atoms: _580  and  _581
REMARK  224  A    between atoms: _583  and  _585
REMARK  225  A    between atoms: _585  and  _586
REMARK  226  A    between atoms: _589  and  _590
REMARK                            x       y       z     vdW  Elec       q    Type
REMARK                         _______ _______ _______ _____ _____    ______ ____
ROOT
ATOM      1  O   HOH     1      10.054   5.375 -13.297  0.00  0.00    +0.000 OA
ENDROOT
TORSDOF 0
REMARK  Name = ../refined-set-2016/4lvt/4lvt_pocket.pdb
REMARK  226 active torsions:
REMARK  status: ('A' for Active; 'I' for Inactive)
REMARK    1  A    between atoms: _1  and  _3
REMARK    2  A    between atoms: _3  and  _4
REMARK    3  A    between atoms: _3  and  _6
REMARK    4  A    between atoms: _6  and  _7
REMARK    5  A    between atoms: _12  and  _13
REMARK    6  A    between atoms: _15  and  _17
REMARK    7  A    between atoms: _17  and  _18
REMARK    8  A    between atoms: _17  and  _20
REMARK    9  A    between atoms: _20  and  _21
REMARK   10  A    between atoms: _24  and  _26
REMARK   11  A    between atoms: _26  and  _27
REMARK   12  A    between atoms: _26  and  _29
REMARK   13  A    between atoms: _29  and  _30
REMARK   14  A    between atoms: _33  and  _35
REMARK   15  A    between atoms: _35  and  _36
REMARK   16  A    between atoms: _35  and  _38
REMARK   17  A    between atoms: _38  and  _39
REMARK   18  A    between atoms: _39  and  _40
REMARK   19  A    between atoms: _45  and  _47
REMARK   20  A    between atoms: _47  and  _48
REMARK   21  A    between atoms: _51  and  _53
REMARK   22  A    between atoms: _53  and  _54
REMARK   23  A    between atoms: _56  and  _58
REMARK   24  A    between atoms: _58  and  _59
REMARK   25  A    between atoms: _58  and  _61
REMARK   26  A    between atoms: _61  and  _62
REMARK   27  A    between atoms: _65  and  _67
REMARK   28  A    between atoms: _67  and  _68
REMARK   29  A    between atoms: _67  and  _70
REMARK   30  A    between atoms: _70  and  _71
REMARK   31  A    between atoms: _74  and  _76
REMARK   32  A    between atoms: _76  and  _77
REMARK   33  A    between atoms: _76  and  _79
REMARK   34  A    between atoms: _79  and  _80
REMARK   35  A    between atoms: _86  and  _88
REMARK   36  A    between atoms: _88  and  _89
REMARK   37  A    between atoms: _88  and  _91
REMARK   38  A    between atoms: _91  and  _92
REMARK   39  A    between atoms: _94  and  _96
REMARK   40  A    between atoms: _96  and  _97
REMARK   41  A    between atoms: _96  and  _99
REMARK   42  A    between atoms: _99  and  _100
REMARK   43  A    between atoms: _100  and  _101
REMARK   44  A    between atoms: _101  and  _102
REMARK   45  A    between atoms: _111  and  _113
REMARK   46  A    between atoms: _113  and  _114
REMARK   47  A    between atoms: _113  and  _116
REMARK   48  A    between atoms: _116  and  _117
REMARK   49  A    between atoms: _117  and  _118
REMARK   50  A    between atoms: _118  and  _119
REMARK   51  A    between atoms: _128  and  _130
REMARK   52  A    between atoms: _130  and  _131
REMARK   53  A    between atoms: _130  and  _133
REMARK   54  A    between atoms: _133  and  _134
REMARK   55  A    between atoms: _139  and  _140
REMARK   56  A    between atoms: _142  and  _144
REMARK   57  A    between atoms: _144  and  _145
REMARK   58  A    between atoms: _144  and  _147
REMARK   59  A    between atoms: _147  and  _148
REMARK   60  A    between atoms: _148  and  _149
REMARK   61  A    between atoms: _149  and  _150
REMARK   62  A    between atoms: _159  and  _161
REMARK   63  A    between atoms: _161  and  _162
REMARK   64  A    between atoms: _161  and  _164
REMARK   65  A    between atoms: _164  and  _165
REMARK   66  A    between atoms: _165  and  _166
REMARK   67  A    between atoms: _166  and  _167
REMARK   68  A    between atoms: _176  and  _178
REMARK   69  A    between atoms: _178  and  _179
REMARK   70  A    between atoms: _178  and  _181
REMARK   71  A    between atoms: _181  and  _182
REMARK   72  A    between atoms: _185  and  _187
REMARK   73  A    between atoms: _187  and  _188
REMARK   74  A    between atoms: _187  and  _190
REMARK   75  A    between atoms: _190  and  _191
REMARK   76  A    between atoms: _197  and  _199
REMARK   77  A    between atoms: _199  and  _200
REMARK   78  A    between atoms: _203  and  _205
REMARK   79  A    between atoms: _205  and  _206
REMARK   80  A    between atoms: _205  and  _208
REMARK   81  A    between atoms: _208  and  _209
REMARK   82  A    between atoms: _209  and  _210
REMARK   83  A    between atoms: _213  and  _215
REMARK   84  A    between atoms: _215  and  _216
REMARK   85  A    between atoms: _215  and  _218
REMARK   86  A    between atoms: _218  and  _219
REMARK   87  A    between atoms: _219  and  _220
REMARK   88  A    between atoms: _222  and  _224
REMARK   89  A    between atoms: _224  and  _225
REMARK   90  A    between atoms: _224  and  _227
REMARK   91  A    between atoms: _227  and  _228
REMARK   92  A    between atoms: _230  and  _232
REMARK   93  A    between atoms: _232  and  _233
REMARK   94  A    between atoms: _232  and  _235
REMARK   95  A    between atoms: _235  and  _236
REMARK   96  A    between atoms: _236  and  _237
REMARK   97  A    between atoms: _237  and  _238
REMARK   98  A    between atoms: _247  and  _249
REMARK   99  A    between atoms: _249  and  _250
REMARK  100  A    between atoms: _249  and  _252
REMARK  101  A    between atoms: _252  and  _253
REMARK  102  A    between atoms: _256  and  _258
REMARK  103  A    between atoms: _258  and  _259
REMARK  104  A    between atoms: _258  and  _261
REMARK  105  A    between atoms: _264  and  _266
REMARK  106  A    between atoms: _266  and  _267
REMARK  107  A    between atoms: _266  and  _269
REMARK  108  A    between atoms: _272  and  _274
REMARK  109  A    between atoms: _274  and  _275
REMARK  110  A    between atoms: _274  and  _277
REMARK  111  A    between atoms: _277  and  _278
REMARK  112  A    between atoms: _278  and  _279
REMARK  113  A    between atoms: _282  and  _284
REMARK  114  A    between atoms: _284  and  _285
REMARK  115  A    between atoms: _284  and  _287
REMARK  116  A    between atoms: _287  and  _288
REMARK  117  A    between atoms: _288  and  _289
REMARK  118  A    between atoms: _292  and  _294
REMARK  119  A    between atoms: _294  and  _295
REMARK  120  A    between atoms: _294  and  _297
REMARK  121  A    between atoms: _297  and  _298
REMARK  122  A    between atoms: _301  and  _303
REMARK  123  A    between atoms: _303  and  _304
REMARK  124  A    between atoms: _303  and  _306
REMARK  125  A    between atoms: _306  and  _307
REMARK  126  A    between atoms: _313  and  _315
REMARK  127  A    between atoms: _315  and  _316
REMARK  128  A    between atoms: _315  and  _318
REMARK  129  A    between atoms: _318  and  _319
REMARK  130  A    between atoms: _319  and  _320
REMARK  131  A    between atoms: _320  and  _321
REMARK  132  A    between atoms: _330  and  _332
REMARK  133  A    between atoms: _332  and  _333
REMARK  134  A    between atoms: _332  and  _335
REMARK  135  A    between atoms: _335  and  _336
REMARK  136  A    between atoms: _339  and  _341
REMARK  137  A    between atoms: _341  and  _342
REMARK  138  A    between atoms: _341  and  _344
REMARK  139  A    between atoms: _347  and  _349
REMARK  140  A    between atoms: _349  and  _350
REMARK  141  A    between atoms: _349  and  _352
REMARK  142  A    between atoms: _352  and  _353
REMARK  143  A    between atoms: _358  and  _360
REMARK  144  A    between atoms: _360  and  _361
REMARK  145  A    between atoms: _360  and  _363
REMARK  146  A    between atoms: _363  and  _364
REMARK  147  A    between atoms: _374  and  _376
REMARK  148  A    between atoms: _376  and  _377
REMARK  149  A    between atoms: _379  and  _381
REMARK  150  A    between atoms: _381  and  _382
REMARK  151  A    between atoms: _381  and  _384
REMARK  152  A    between atoms: _384  and  _385
REMARK  153  A    between atoms: _385  and  _386
REMARK  154  A    between atoms: _386  and  _387
REMARK  155  A    between atoms: _396  and  _398
REMARK  156  A    between atoms: _398  and  _399
REMARK  157  A    between atoms: _398  and  _401
REMARK  158  A    between atoms: _401  and  _402
REMARK  159  A    between atoms: _405  and  _407
REMARK  160  A    between atoms: _407  and  _408
REMARK  161  A    between atoms: _407  and  _410
REMARK  162  A    between atoms: _413  and  _415
REMARK  163  A    between atoms: _415  and  _416
REMARK  164  A    between atoms: _419  and  _421
REMARK  165  A    between atoms: _421  and  _422
REMARK  166  A    between atoms: _421  and  _424
REMARK  167  A    between atoms: _424  and  _425
REMARK  168  A    between atoms: _431  and  _433
REMARK  169  A    between atoms: _433  and  _434
REMARK  170  A    between atoms: _433  and  _436
REMARK  171  A    between atoms: _436  and  _437
REMARK  172  A    between atoms: _443  and  _445
REMARK  173  A    between atoms: _445  and  _446
REMARK  174  A    between atoms: _445  and  _448
REMARK  175  A    between atoms: _448  and  _449
REMARK  176  A    between atoms: _449  and  _450
REMARK  177  A    between atoms: _453  and  _455
REMARK  178  A    between atoms: _455  and  _456
REMARK  179  A    between atoms: _455  and  _458
REMARK  180  A    between atoms: _458  and  _459
REMARK  181  A    between atoms: _465  and  _467
REMARK  182  A    between atoms: _467  and  _468
REMARK  183  A    between atoms: _470  and  _472
REMARK  184  A    between atoms: _472  and  _473
REMARK  185  A    between atoms: _475  and  _477
REMARK  186  A    between atoms: _477  and  _478
REMARK  187  A    between atoms: _477  and  _480
REMARK  188  A    between atoms: _483  and  _485
REMARK  189  A    between atoms: _485  and  _486
REMARK  190  A    between atoms: _485  and  _488
REMARK  191  A    between atoms: _488  and  _489
REMARK  192  A    between atoms: _489  and  _490
REMARK  193  A    between atoms: _492  and  _494
REMARK  194  A    between atoms: _494  and  _495
REMARK  195  A    between atoms: _494  and  _497
REMARK  196  A    between atoms: _497  and  _498
REMARK  197  A    between atoms: _508  and  _510
REMARK  198  A    between atoms: _510  and  _511
REMARK  199  A    between atoms: _510  and  _513
REMARK  200  A    between atoms: _513  and  _514
REMARK  201  A    between atoms: _524  and  _526
REMARK  202  A    between atoms: _526  and  _527
REMARK  203  A    between atoms: _530  and  _532
REMARK  204  A    between atoms: _532  and  _533
REMARK  205  A    between atoms: _532  and  _535
REMARK  206  A    between atoms: _535  and  _536
REMARK  207  A    between atoms: _542  and  _544
REMARK  208  A    between atoms: _544  and  _545
REMARK  209  A    between atoms: _544  and  _547
REMARK  210  A    between atoms: _550  and  _552
REMARK  211  A    between atoms: _552  and  _553
REMARK  212  A    between atoms: _552  and  _555
REMARK  213  A    between atoms: _555  and  _556
REMARK  214  A    between atoms: _556  and  _557
REMARK  215  A    between atoms: _560  and  _562
REMARK  216  A    between atoms: _562  and  _563
REMARK  217  A    between atoms: _562  and  _565
REMARK  218  A    between atoms: _565  and  _566
REMARK  219  A    between atoms: _569  and  _571
REMARK  220  A    between atoms: _571  and  _572
REMARK  221  A    between atoms: _571  and  _574
REMARK  222  A    between atoms: _574  and  _575
REMARK  223  A    between atoms: _580  and  _581
REMARK  224  A    between atoms: _583  and  _585
REMARK  225  A    between atoms: _585  and  _586
REMARK  226  A    between atoms: _589  and  _590
REMARK                            x       y       z     vdW  Elec       q    Type
REMARK                         _______ _______ _______ _____ _____    ______ ____
ROOT
ATOM      1  O   HOH     1      12.678   4.758 -11.689  0.00  0.00    +0.000 OA
ENDROOT
TORSDOF 0
REMARK  Name = ../refined-set-2016/4lvt/4lvt_pocket.pdb
REMARK  226 active torsions:
REMARK  status: ('A' for Active; 'I' for Inactive)
REMARK    1  A    between atoms: _1  and  _3
REMARK    2  A    between atoms: _3  and  _4
REMARK    3  A    between atoms: _3  and  _6
REMARK    4  A    between atoms: _6  and  _7
REMARK    5  A    between atoms: _12  and  _13
REMARK    6  A    between atoms: _15  and  _17
REMARK    7  A    between atoms: _17  and  _18
REMARK    8  A    between atoms: _17  and  _20
REMARK    9  A    between atoms: _20  and  _21
REMARK   10  A    between atoms: _24  and  _26
REMARK   11  A    between atoms: _26  and  _27
REMARK   12  A    between atoms: _26  and  _29
REMARK   13  A    between atoms: _29  and  _30
REMARK   14  A    between atoms: _33  and  _35
REMARK   15  A    between atoms: _35  and  _36
REMARK   16  A    between atoms: _35  and  _38
REMARK   17  A    between atoms: _38  and  _39
REMARK   18  A    between atoms: _39  and  _40
REMARK   19  A    between atoms: _45  and  _47
REMARK   20  A    between atoms: _47  and  _48
REMARK   21  A    between atoms: _51  and  _53
REMARK   22  A    between atoms: _53  and  _54
REMARK   23  A    between atoms: _56  and  _58
REMARK   24  A    between atoms: _58  and  _59
REMARK   25  A    between atoms: _58  and  _61
REMARK   26  A    between atoms: _61  and  _62
REMARK   27  A    between atoms: _65  and  _67
REMARK   28  A    between atoms: _67  and  _68
REMARK   29  A    between atoms: _67  and  _70
REMARK   30  A    between atoms: _70  and  _71
REMARK   31  A    between atoms: _74  and  _76
REMARK   32  A    between atoms: _76  and  _77
REMARK   33  A    between atoms: _76  and  _79
REMARK   34  A    between atoms: _79  and  _80
REMARK   35  A    between atoms: _86  and  _88
REMARK   36  A    between atoms: _88  and  _89
REMARK   37  A    between atoms: _88  and  _91
REMARK   38  A    between atoms: _91  and  _92
REMARK   39  A    between atoms: _94  and  _96
REMARK   40  A    between atoms: _96  and  _97
REMARK   41  A    between atoms: _96  and  _99
REMARK   42  A    between atoms: _99  and  _100
REMARK   43  A    between atoms: _100  and  _101
REMARK   44  A    between atoms: _101  and  _102
REMARK   45  A    between atoms: _111  and  _113
REMARK   46  A    between atoms: _113  and  _114
REMARK   47  A    between atoms: _113  and  _116
REMARK   48  A    between atoms: _116  and  _117
REMARK   49  A    between atoms: _117  and  _118
REMARK   50  A    between atoms: _118  and  _119
REMARK   51  A    between atoms: _128  and  _130
REMARK   52  A    between atoms: _130  and  _131
REMARK   53  A    between atoms: _130  and  _133
REMARK   54  A    between atoms: _133  and  _134
REMARK   55  A    between atoms: _139  and  _140
REMARK   56  A    between atoms: _142  and  _144
REMARK   57  A    between atoms: _144  and  _145
REMARK   58  A    between atoms: _144  and  _147
REMARK   59  A    between atoms: _147  and  _148
REMARK   60  A    between atoms: _148  and  _149
REMARK   61  A    between atoms: _149  and  _150
REMARK   62  A    between atoms: _159  and  _161
REMARK   63  A    between atoms: _161  and  _162
REMARK   64  A    between atoms: _161  and  _164
REMARK   65  A    between atoms: _164  and  _165
REMARK   66  A    between atoms: _165  and  _166
REMARK   67  A    between atoms: _166  and  _167
REMARK   68  A    between atoms: _176  and  _178
REMARK   69  A    between atoms: _178  and  _179
REMARK   70  A    between atoms: _178  and  _181
REMARK   71  A    between atoms: _181  and  _182
REMARK   72  A    between atoms: _185  and  _187
REMARK   73  A    between atoms: _187  and  _188
REMARK   74  A    between atoms: _187  and  _190
REMARK   75  A    between atoms: _190  and  _191
REMARK   76  A    between atoms: _197  and  _199
REMARK   77  A    between atoms: _199  and  _200
REMARK   78  A    between atoms: _203  and  _205
REMARK   79  A    between atoms: _205  and  _206
REMARK   80  A    between atoms: _205  and  _208
REMARK   81  A    between atoms: _208  and  _209
REMARK   82  A    between atoms: _209  and  _210
REMARK   83  A    between atoms: _213  and  _215
REMARK   84  A    between atoms: _215  and  _216
REMARK   85  A    between atoms: _215  and  _218
REMARK   86  A    between atoms: _218  and  _219
REMARK   87  A    between atoms: _219  and  _220
REMARK   88  A    between atoms: _222  and  _224
REMARK   89  A    between atoms: _224  and  _225
REMARK   90  A    between atoms: _224  and  _227
REMARK   91  A    between atoms: _227  and  _228
REMARK   92  A    between atoms: _230  and  _232
REMARK   93  A    between atoms: _232  and  _233
REMARK   94  A    between atoms: _232  and  _235
REMARK   95  A    between atoms: _235  and  _236
REMARK   96  A    between atoms: _236  and  _237
REMARK   97  A    between atoms: _237  and  _238
REMARK   98  A    between atoms: _247  and  _249
REMARK   99  A    between atoms: _249  and  _250
REMARK  100  A    between atoms: _249  and  _252
REMARK  101  A    between atoms: _252  and  _253
REMARK  102  A    between atoms: _256  and  _258
REMARK  103  A    between atoms: _258  and  _259
REMARK  104  A    between atoms: _258  and  _261
REMARK  105  A    between atoms: _264  and  _266
REMARK  106  A    between atoms: _266  and  _267
REMARK  107  A    between atoms: _266  and  _269
REMARK  108  A    between atoms: _272  and  _274
REMARK  109  A    between atoms: _274  and  _275
REMARK  110  A    between atoms: _274  and  _277
REMARK  111  A    between atoms: _277  and  _278
REMARK  112  A    between atoms: _278  and  _279
REMARK  113  A    between atoms: _282  and  _284
REMARK  114  A    between atoms: _284  and  _285
REMARK  115  A    between atoms: _284  and  _287
REMARK  116  A    between atoms: _287  and  _288
REMARK  117  A    between atoms: _288  and  _289
REMARK  118  A    between atoms: _292  and  _294
REMARK  119  A    between atoms: _294  and  _295
REMARK  120  A    between atoms: _294  and  _297
REMARK  121  A    between atoms: _297  and  _298
REMARK  122  A    between atoms: _301  and  _303
REMARK  123  A    between atoms: _303  and  _304
REMARK  124  A    between atoms: _303  and  _306
REMARK  125  A    between atoms: _306  and  _307
REMARK  126  A    between atoms: _313  and  _315
REMARK  127  A    between atoms: _315  and  _316
REMARK  128  A    between atoms: _315  and  _318
REMARK  129  A    between atoms: _318  and  _319
REMARK  130  A    between atoms: _319  and  _320
REMARK  131  A    between atoms: _320  and  _321
REMARK  132  A    between atoms: _330  and  _332
REMARK  133  A    between atoms: _332  and  _333
REMARK  134  A    between atoms: _332  and  _335
REMARK  135  A    between atoms: _335  and  _336
REMARK  136  A    between atoms: _339  and  _341
REMARK  137  A    between atoms: _341  and  _342
REMARK  138  A    between atoms: _341  and  _344
REMARK  139  A    between atoms: _347  and  _349
REMARK  140  A    between atoms: _349  and  _350
REMARK  141  A    between atoms: _349  and  _352
REMARK  142  A    between atoms: _352  and  _353
REMARK  143  A    between atoms: _358  and  _360
REMARK  144  A    between atoms: _360  and  _361
REMARK  145  A    between atoms: _360  and  _363
REMARK  146  A    between atoms: _363  and  _364
REMARK  147  A    between atoms: _374  and  _376
REMARK  148  A    between atoms: _376  and  _377
REMARK  149  A    between atoms: _379  and  _381
REMARK  150  A    between atoms: _381  and  _382
REMARK  151  A    between atoms: _381  and  _384
REMARK  152  A    between atoms: _384  and  _385
REMARK  153  A    between atoms: _385  and  _386
REMARK  154  A    between atoms: _386  and  _387
REMARK  155  A    between atoms: _396  and  _398
REMARK  156  A    between atoms: _398  and  _399
REMARK  157  A    between atoms: _398  and  _401
REMARK  158  A    between atoms: _401  and  _402
REMARK  159  A    between atoms: _405  and  _407
REMARK  160  A    between atoms: _407  and  _408
REMARK  161  A    between atoms: _407  and  _410
REMARK  162  A    between atoms: _413  and  _415
REMARK  163  A    between atoms: _415  and  _416
REMARK  164  A    between atoms: _419  and  _421
REMARK  165  A    between atoms: _421  and  _422
REMARK  166  A    between atoms: _421  and  _424
REMARK  167  A    between atoms: _424  and  _425
REMARK  168  A    between atoms: _431  and  _433
REMARK  169  A    between atoms: _433  and  _434
REMARK  170  A    between atoms: _433  and  _436
REMARK  171  A    between atoms: _436  and  _437
REMARK  172  A    between atoms: _443  and  _445
REMARK  173  A    between atoms: _445  and  _446
REMARK  174  A    between atoms: _445  and  _448
REMARK  175  A    between atoms: _448  and  _449
REMARK  176  A    between atoms: _449  and  _450
REMARK  177  A    between atoms: _453  and  _455
REMARK  178  A    between atoms: _455  and  _456
REMARK  179  A    between atoms: _455  and  _458
REMARK  180  A    between atoms: _458  and  _459
REMARK  181  A    between atoms: _465  and  _467
REMARK  182  A    between atoms: _467  and  _468
REMARK  183  A    between atoms: _470  and  _472
REMARK  184  A    between atoms: _472  and  _473
REMARK  185  A    between atoms: _475  and  _477
REMARK  186  A    between atoms: _477  and  _478
REMARK  187  A    between atoms: _477  and  _480
REMARK  188  A    between atoms: _483  and  _485
REMARK  189  A    between atoms: _485  and  _486
REMARK  190  A    between atoms: _485  and  _488
REMARK  191  A    between atoms: _488  and  _489
REMARK  192  A    between atoms: _489  and  _490
REMARK  193  A    between atoms: _492  and  _494
REMARK  194  A    between atoms: _494  and  _495
REMARK  195  A    between atoms: _494  and  _497
REMARK  196  A    between atoms: _497  and  _498
REMARK  197  A    between atoms: _508  and  _510
REMARK  198  A    between atoms: _510  and  _511
REMARK  199  A    between atoms: _510  and  _513
REMARK  200  A    between atoms: _513  and  _514
REMARK  201  A    between atoms: _524  and  _526
REMARK  202  A    between atoms: _526  and  _527
REMARK  203  A    between atoms: _530  and  _532
REMARK  204  A    between atoms: _532  and  _533
REMARK  205  A    between atoms: _532  and  _535
REMARK  206  A    between atoms: _535  and  _536
REMARK  207  A    between atoms: _542  and  _544
REMARK  208  A    between atoms: _544  and  _545
REMARK  209  A    between atoms: _544  and  _547
REMARK  210  A    between atoms: _550  and  _552
REMARK  211  A    between atoms: _552  and  _553
REMARK  212  A    between atoms: _552  and  _555
REMARK  213  A    between atoms: _555  and  _556
REMARK  214  A    between atoms: _556  and  _557
REMARK  215  A    between atoms: _560  and  _562
REMARK  216  A    between atoms: _562  and  _563
REMARK  217  A    between atoms: _562  and  _565
REMARK  218  A    between atoms: _565  and  _566
REMARK  219  A    between atoms: _569  and  _571
REMARK  220  A    between atoms: _571  and  _572
REMARK  221  A    between atoms: _571  and  _574
REMARK  222  A    between atoms: _574  and  _575
REMARK  223  A    between atoms: _580  and  _581
REMARK  224  A    between atoms: _583  and  _585
REMARK  225  A    between atoms: _585  and  _586
REMARK  226  A    between atoms: _589  and  _590
REMARK                            x       y       z     vdW  Elec       q    Type
REMARK                         _______ _______ _______ _____ _____    ______ ____
ROOT
ATOM      1  O   HOH     1      11.457   2.857 -11.907  0.00  0.00    +0.000 OA
ENDROOT
TORSDOF 0
