REMARK  Name = ../refined-set-2016/3ary/3ary_pocket.pdb
REMARK  133 active torsions:
REMARK  status: ('A' for Active; 'I' for Inactive)
REMARK    1  A    between atoms: _1  and  _3
REMARK    2  A    between atoms: _3  and  _4
REMARK    3  A    between atoms: _3  and  _6
REMARK    4  A    between atoms: _6  and  _7
REMARK    5  A    between atoms: _17  and  _19
REMARK    6  A    between atoms: _19  and  _20
REMARK    7  A    between atoms: _19  and  _22
REMARK    8  A    between atoms: _22  and  _23
REMARK    9  A    between atoms: _29  and  _31
REMARK   10  A    between atoms: _31  and  _32
REMARK   11  A    between atoms: _31  and  _34
REMARK   12  A    between atoms: _34  and  _35
REMARK   13  A    between atoms: _37  and  _39
REMARK   14  A    between atoms: _39  and  _40
REMARK   15  A    between atoms: _39  and  _42
REMARK   16  A    between atoms: _45  and  _47
REMARK   17  A    between atoms: _47  and  _48
REMARK   18  A    between atoms: _47  and  _50
REMARK   19  A    between atoms: _50  and  _51
REMARK   20  A    between atoms: _53  and  _55
REMARK   21  A    between atoms: _55  and  _56
REMARK   22  A    between atoms: _55  and  _58
REMARK   23  A    between atoms: _61  and  _63
REMARK   24  A    between atoms: _63  and  _64
REMARK   25  A    between atoms: _66  and  _68
REMARK   26  A    between atoms: _68  and  _69
REMARK   27  A    between atoms: _68  and  _71
REMARK   28  A    between atoms: _71  and  _72
REMARK   29  A    between atoms: _82  and  _84
REMARK   30  A    between atoms: _84  and  _85
REMARK   31  A    between atoms: _84  and  _87
REMARK   32  A    between atoms: _87  and  _88
REMARK   33  A    between atoms: _91  and  _93
REMARK   34  A    between atoms: _93  and  _94
REMARK   35  A    between atoms: _93  and  _96
REMARK   36  A    between atoms: _96  and  _97
REMARK   37  A    between atoms: _100  and  _102
REMARK   38  A    between atoms: _102  and  _103
REMARK   39  A    between atoms: _102  and  _105
REMARK   40  A    between atoms: _105  and  _106
REMARK   41  A    between atoms: _106  and  _107
REMARK   42  A    between atoms: _110  and  _112
REMARK   43  A    between atoms: _112  and  _113
REMARK   44  A    between atoms: _112  and  _115
REMARK   45  A    between atoms: _115  and  _116
REMARK   46  A    between atoms: _122  and  _124
REMARK   47  A    between atoms: _124  and  _125
REMARK   48  A    between atoms: _127  and  _129
REMARK   49  A    between atoms: _129  and  _130
REMARK   50  A    between atoms: _132  and  _134
REMARK   51  A    between atoms: _134  and  _135
REMARK   52  A    between atoms: _138  and  _140
REMARK   53  A    between atoms: _140  and  _141
REMARK   54  A    between atoms: _140  and  _143
REMARK   55  A    between atoms: _143  and  _144
REMARK   56  A    between atoms: _144  and  _145
REMARK   57  A    between atoms: _145  and  _146
REMARK   58  A    between atoms: _146  and  _147
REMARK   59  A    between atoms: _151  and  _153
REMARK   60  A    between atoms: _153  and  _154
REMARK   61  A    between atoms: _153  and  _156
REMARK   62  A    between atoms: _156  and  _157
REMARK   63  A    between atoms: _157  and  _158
REMARK   64  A    between atoms: _160  and  _162
REMARK   65  A    between atoms: _162  and  _163
REMARK   66  A    between atoms: _162  and  _165
REMARK   67  A    between atoms: _165  and  _166
REMARK   68  A    between atoms: _171  and  _172
REMARK   69  A    between atoms: _174  and  _176
REMARK   70  A    between atoms: _176  and  _177
REMARK   71  A    between atoms: _176  and  _179
REMARK   72  A    between atoms: _179  and  _180
REMARK   73  A    between atoms: _183  and  _185
REMARK   74  A    between atoms: _185  and  _186
REMARK   75  A    between atoms: _185  and  _188
REMARK   76  A    between atoms: _188  and  _189
REMARK   77  A    between atoms: _195  and  _197
REMARK   78  A    between atoms: _197  and  _198
REMARK   79  A    between atoms: _197  and  _200
REMARK   80  A    between atoms: _200  and  _201
REMARK   81  A    between atoms: _206  and  _207
REMARK   82  A    between atoms: _209  and  _211
REMARK   83  A    between atoms: _211  and  _212
REMARK   84  A    between atoms: _214  and  _216
REMARK   85  A    between atoms: _216  and  _217
REMARK   86  A    between atoms: _219  and  _221
REMARK   87  A    between atoms: _221  and  _222
REMARK   88  A    between atoms: _221  and  _224
REMARK   89  A    between atoms: _224  and  _225
REMARK   90  A    between atoms: _235  and  _237
REMARK   91  A    between atoms: _237  and  _238
REMARK   92  A    between atoms: _237  and  _240
REMARK   93  A    between atoms: _240  and  _241
REMARK   94  A    between atoms: _246  and  _248
REMARK   95  A    between atoms: _248  and  _249
REMARK   96  A    between atoms: _248  and  _251
REMARK   97  A    between atoms: _251  and  _252
REMARK   98  A    between atoms: _257  and  _258
REMARK   99  A    between atoms: _260  and  _262
REMARK  100  A    between atoms: _262  and  _263
REMARK  101  A    between atoms: _262  and  _265
REMARK  102  A    between atoms: _265  and  _266
REMARK  103  A    between atoms: _271  and  _272
REMARK  104  A    between atoms: _274  and  _276
REMARK  105  A    between atoms: _276  and  _277
REMARK  106  A    between atoms: _276  and  _279
REMARK  107  A    between atoms: _279  and  _280
REMARK  108  A    between atoms: _280  and  _281
REMARK  109  A    between atoms: _281  and  _282
REMARK  110  A    between atoms: _291  and  _293
REMARK  111  A    between atoms: _293  and  _294
REMARK  112  A    between atoms: _293  and  _296
REMARK  113  A    between atoms: _296  and  _297
REMARK  114  A    between atoms: _297  and  _298
REMARK  115  A    between atoms: _298  and  _299
REMARK  116  A    between atoms: _299  and  _300
REMARK  117  A    between atoms: _304  and  _306
REMARK  118  A    between atoms: _306  and  _307
REMARK  119  A    between atoms: _306  and  _309
REMARK  120  A    between atoms: _309  and  _310
REMARK  121  A    between atoms: _310  and  _311
REMARK  122  A    between atoms: _314  and  _316
REMARK  123  A    between atoms: _316  and  _317
REMARK  124  A    between atoms: _316  and  _319
REMARK  125  A    between atoms: _322  and  _324
REMARK  126  A    between atoms: _324  and  _325
REMARK  127  A    between atoms: _324  and  _327
REMARK  128  A    between atoms: _327  and  _328
REMARK  129  A    between atoms: _338  and  _340
REMARK  130  A    between atoms: _340  and  _341
REMARK  131  A    between atoms: _340  and  _343
REMARK  132  A    between atoms: _343  and  _344
REMARK  133  A    between atoms: _344  and  _345
REMARK                            x       y       z     vdW  Elec       q    Type
REMARK                         _______ _______ _______ _____ _____    ______ ____
ROOT
ATOM      1  CG  TRP A   1       5.525  -3.011  30.794  0.00  0.00    -0.002 A 
ATOM      2  CD2 TRP A   1       5.650  -4.325  30.160  0.00  0.00    +0.013 A 
ATOM      3  CE3 TRP A   1       5.093  -5.580  30.437  0.00  0.00    +0.001 A 
ATOM      4  CZ3 TRP A   1       5.376  -6.597  29.533  0.00  0.00    +0.000 A 
ATOM      5  CH2 TRP A   1       6.190  -6.395  28.416  0.00  0.00    +0.001 A 
ATOM      6  CZ2 TRP A   1       6.747  -5.162  28.111  0.00  0.00    +0.017 A 
ATOM      7  CE2 TRP A   1       6.418  -4.123  28.978  0.00  0.00    +0.056 A 
ATOM      8  NE1 TRP A   1       6.758  -2.784  28.891  0.00  0.00    -0.352 N 
ATOM      9  HE1 TRP A   1       7.291  -2.334  28.119  0.00  0.00    +0.166 HD
ATOM     10  CD1 TRP A   1       6.253  -2.143  30.034  0.00  0.00    +0.068 A 
ENDROOT
BRANCH   1  11
ATOM     11  CB  TRP A   1       4.779  -2.737  32.080  0.00  0.00    +0.053 C 
BRANCH  11  12
ATOM     12  CA  TRP A   1       3.347  -2.304  31.820  0.00  0.00    +0.137 C 
BRANCH  12  13
ATOM     13  N   TRP A   1       2.623  -3.368  31.158  0.00  0.00    -0.239 NA
ATOM     14  H   TRP A   1       3.164  -4.043  30.581  0.00  0.00    +0.142 HD
ENDBRANCH  12  13
BRANCH  12  15
ATOM     15  C   TRP A   1       3.308  -0.970  31.067  0.00  0.00    +0.224 C 
ATOM     16  O   TRP A   1       3.908   0.054  31.516  0.00  0.00    -0.287 OA
ENDBRANCH  12  15
ENDBRANCH  11  12
ENDBRANCH   1  11
TORSDOF 4
REMARK  Name = ../refined-set-2016/3ary/3ary_pocket.pdb
REMARK  133 active torsions:
REMARK  status: ('A' for Active; 'I' for Inactive)
REMARK    1  A    between atoms: _1  and  _3
REMARK    2  A    between atoms: _3  and  _4
REMARK    3  A    between atoms: _3  and  _6
REMARK    4  A    between atoms: _6  and  _7
REMARK    5  A    between atoms: _17  and  _19
REMARK    6  A    between atoms: _19  and  _20
REMARK    7  A    between atoms: _19  and  _22
REMARK    8  A    between atoms: _22  and  _23
REMARK    9  A    between atoms: _29  and  _31
REMARK   10  A    between atoms: _31  and  _32
REMARK   11  A    between atoms: _31  and  _34
REMARK   12  A    between atoms: _34  and  _35
REMARK   13  A    between atoms: _37  and  _39
REMARK   14  A    between atoms: _39  and  _40
REMARK   15  A    between atoms: _39  and  _42
REMARK   16  A    between atoms: _45  and  _47
REMARK   17  A    between atoms: _47  and  _48
REMARK   18  A    between atoms: _47  and  _50
REMARK   19  A    between atoms: _50  and  _51
REMARK   20  A    between atoms: _53  and  _55
REMARK   21  A    between atoms: _55  and  _56
REMARK   22  A    between atoms: _55  and  _58
REMARK   23  A    between atoms: _61  and  _63
REMARK   24  A    between atoms: _63  and  _64
REMARK   25  A    between atoms: _66  and  _68
REMARK   26  A    between atoms: _68  and  _69
REMARK   27  A    between atoms: _68  and  _71
REMARK   28  A    between atoms: _71  and  _72
REMARK   29  A    between atoms: _82  and  _84
REMARK   30  A    between atoms: _84  and  _85
REMARK   31  A    between atoms: _84  and  _87
REMARK   32  A    between atoms: _87  and  _88
REMARK   33  A    between atoms: _91  and  _93
REMARK   34  A    between atoms: _93  and  _94
REMARK   35  A    between atoms: _93  and  _96
REMARK   36  A    between atoms: _96  and  _97
REMARK   37  A    between atoms: _100  and  _102
REMARK   38  A    between atoms: _102  and  _103
REMARK   39  A    between atoms: _102  and  _105
REMARK   40  A    between atoms: _105  and  _106
REMARK   41  A    between atoms: _106  and  _107
REMARK   42  A    between atoms: _110  and  _112
REMARK   43  A    between atoms: _112  and  _113
REMARK   44  A    between atoms: _112  and  _115
REMARK   45  A    between atoms: _115  and  _116
REMARK   46  A    between atoms: _122  and  _124
REMARK   47  A    between atoms: _124  and  _125
REMARK   48  A    between atoms: _127  and  _129
REMARK   49  A    between atoms: _129  and  _130
REMARK   50  A    between atoms: _132  and  _134
REMARK   51  A    between atoms: _134  and  _135
REMARK   52  A    between atoms: _138  and  _140
REMARK   53  A    between atoms: _140  and  _141
REMARK   54  A    between atoms: _140  and  _143
REMARK   55  A    between atoms: _143  and  _144
REMARK   56  A    between atoms: _144  and  _145
REMARK   57  A    between atoms: _145  and  _146
REMARK   58  A    between atoms: _146  and  _147
REMARK   59  A    between atoms: _151  and  _153
REMARK   60  A    between atoms: _153  and  _154
REMARK   61  A    between atoms: _153  and  _156
REMARK   62  A    between atoms: _156  and  _157
REMARK   63  A    between atoms: _157  and  _158
REMARK   64  A    between atoms: _160  and  _162
REMARK   65  A    between atoms: _162  and  _163
REMARK   66  A    between atoms: _162  and  _165
REMARK   67  A    between atoms: _165  and  _166
REMARK   68  A    between atoms: _171  and  _172
REMARK   69  A    between atoms: _174  and  _176
REMARK   70  A    between atoms: _176  and  _177
REMARK   71  A    between atoms: _176  and  _179
REMARK   72  A    between atoms: _179  and  _180
REMARK   73  A    between atoms: _183  and  _185
REMARK   74  A    between atoms: _185  and  _186
REMARK   75  A    between atoms: _185  and  _188
REMARK   76  A    between atoms: _188  and  _189
REMARK   77  A    between atoms: _195  and  _197
REMARK   78  A    between atoms: _197  and  _198
REMARK   79  A    between atoms: _197  and  _200
REMARK   80  A    between atoms: _200  and  _201
REMARK   81  A    between atoms: _206  and  _207
REMARK   82  A    between atoms: _209  and  _211
REMARK   83  A    between atoms: _211  and  _212
REMARK   84  A    between atoms: _214  and  _216
REMARK   85  A    between atoms: _216  and  _217
REMARK   86  A    between atoms: _219  and  _221
REMARK   87  A    between atoms: _221  and  _222
REMARK   88  A    between atoms: _221  and  _224
REMARK   89  A    between atoms: _224  and  _225
REMARK   90  A    between atoms: _235  and  _237
REMARK   91  A    between atoms: _237  and  _238
REMARK   92  A    between atoms: _237  and  _240
REMARK   93  A    between atoms: _240  and  _241
REMARK   94  A    between atoms: _246  and  _248
REMARK   95  A    between atoms: _248  and  _249
REMARK   96  A    between atoms: _248  and  _251
REMARK   97  A    between atoms: _251  and  _252
REMARK   98  A    between atoms: _257  and  _258
REMARK   99  A    between atoms: _260  and  _262
REMARK  100  A    between atoms: _262  and  _263
REMARK  101  A    between atoms: _262  and  _265
REMARK  102  A    between atoms: _265  and  _266
REMARK  103  A    between atoms: _271  and  _272
REMARK  104  A    between atoms: _274  and  _276
REMARK  105  A    between atoms: _276  and  _277
REMARK  106  A    between atoms: _276  and  _279
REMARK  107  A    between atoms: _279  and  _280
REMARK  108  A    between atoms: _280  and  _281
REMARK  109  A    between atoms: _281  and  _282
REMARK  110  A    between atoms: _291  and  _293
REMARK  111  A    between atoms: _293  and  _294
REMARK  112  A    between atoms: _293  and  _296
REMARK  113  A    between atoms: _296  and  _297
REMARK  114  A    between atoms: _297  and  _298
REMARK  115  A    between atoms: _298  and  _299
REMARK  116  A    between atoms: _299  and  _300
REMARK  117  A    between atoms: _304  and  _306
REMARK  118  A    between atoms: _306  and  _307
REMARK  119  A    between atoms: _306  and  _309
REMARK  120  A    between atoms: _309  and  _310
REMARK  121  A    between atoms: _310  and  _311
REMARK  122  A    between atoms: _314  and  _316
REMARK  123  A    between atoms: _316  and  _317
REMARK  124  A    between atoms: _316  and  _319
REMARK  125  A    between atoms: _322  and  _324
REMARK  126  A    between atoms: _324  and  _325
REMARK  127  A    between atoms: _324  and  _327
REMARK  128  A    between atoms: _327  and  _328
REMARK  129  A    between atoms: _338  and  _340
REMARK  130  A    between atoms: _340  and  _341
REMARK  131  A    between atoms: _340  and  _343
REMARK  132  A    between atoms: _343  and  _344
REMARK  133  A    between atoms: _344  and  _345
REMARK                            x       y       z     vdW  Elec       q    Type
REMARK                         _______ _______ _______ _____ _____    ______ ____
ROOT
ATOM      1  CB  PHE A   1       4.330 -11.539  28.595  0.00  0.00    +0.051 C 
ENDROOT
BRANCH   1   2
ATOM      2  CG  PHE A   1       4.817 -11.012  27.279  0.00  0.00    -0.020 A 
ATOM      3  CD2 PHE A   1       5.330  -9.737  27.176  0.00  0.00    -0.004 A 
ATOM      4  CE2 PHE A   1       5.724  -9.252  25.911  0.00  0.00    -0.000 A 
ATOM      5  CZ  PHE A   1       5.577 -10.001  24.785  0.00  0.00    -0.000 A 
ATOM      6  CE1 PHE A   1       5.060 -11.284  24.901  0.00  0.00    -0.000 A 
ATOM      7  CD1 PHE A   1       4.657 -11.750  26.140  0.00  0.00    -0.004 A 
ENDBRANCH   1   2
BRANCH   1   8
ATOM      8  CA  PHE A   1       2.863 -11.113  28.872  0.00  0.00    +0.137 C 
BRANCH   8   9
ATOM      9  N   PHE A   1       2.704  -9.649  29.072  0.00  0.00    -0.239 NA
ATOM     10  H   PHE A   1       2.944  -9.275  30.013  0.00  0.00    +0.142 HD
ENDBRANCH   8   9
BRANCH   8  11
ATOM     11  C   PHE A   1       2.510 -11.778  30.169  0.00  0.00    +0.224 C 
ATOM     12  O   PHE A   1       2.757 -11.217  31.265  0.00  0.00    -0.287 OA
ENDBRANCH   8  11
ENDBRANCH   1   8
TORSDOF 4
REMARK  Name = ../refined-set-2016/3ary/3ary_pocket.pdb
REMARK  133 active torsions:
REMARK  status: ('A' for Active; 'I' for Inactive)
REMARK    1  A    between atoms: _1  and  _3
REMARK    2  A    between atoms: _3  and  _4
REMARK    3  A    between atoms: _3  and  _6
REMARK    4  A    between atoms: _6  and  _7
REMARK    5  A    between atoms: _17  and  _19
REMARK    6  A    between atoms: _19  and  _20
REMARK    7  A    between atoms: _19  and  _22
REMARK    8  A    between atoms: _22  and  _23
REMARK    9  A    between atoms: _29  and  _31
REMARK   10  A    between atoms: _31  and  _32
REMARK   11  A    between atoms: _31  and  _34
REMARK   12  A    between atoms: _34  and  _35
REMARK   13  A    between atoms: _37  and  _39
REMARK   14  A    between atoms: _39  and  _40
REMARK   15  A    between atoms: _39  and  _42
REMARK   16  A    between atoms: _45  and  _47
REMARK   17  A    between atoms: _47  and  _48
REMARK   18  A    between atoms: _47  and  _50
REMARK   19  A    between atoms: _50  and  _51
REMARK   20  A    between atoms: _53  and  _55
REMARK   21  A    between atoms: _55  and  _56
REMARK   22  A    between atoms: _55  and  _58
REMARK   23  A    between atoms: _61  and  _63
REMARK   24  A    between atoms: _63  and  _64
REMARK   25  A    between atoms: _66  and  _68
REMARK   26  A    between atoms: _68  and  _69
REMARK   27  A    between atoms: _68  and  _71
REMARK   28  A    between atoms: _71  and  _72
REMARK   29  A    between atoms: _82  and  _84
REMARK   30  A    between atoms: _84  and  _85
REMARK   31  A    between atoms: _84  and  _87
REMARK   32  A    between atoms: _87  and  _88
REMARK   33  A    between atoms: _91  and  _93
REMARK   34  A    between atoms: _93  and  _94
REMARK   35  A    between atoms: _93  and  _96
REMARK   36  A    between atoms: _96  and  _97
REMARK   37  A    between atoms: _100  and  _102
REMARK   38  A    between atoms: _102  and  _103
REMARK   39  A    between atoms: _102  and  _105
REMARK   40  A    between atoms: _105  and  _106
REMARK   41  A    between atoms: _106  and  _107
REMARK   42  A    between atoms: _110  and  _112
REMARK   43  A    between atoms: _112  and  _113
REMARK   44  A    between atoms: _112  and  _115
REMARK   45  A    between atoms: _115  and  _116
REMARK   46  A    between atoms: _122  and  _124
REMARK   47  A    between atoms: _124  and  _125
REMARK   48  A    between atoms: _127  and  _129
REMARK   49  A    between atoms: _129  and  _130
REMARK   50  A    between atoms: _132  and  _134
REMARK   51  A    between atoms: _134  and  _135
REMARK   52  A    between atoms: _138  and  _140
REMARK   53  A    between atoms: _140  and  _141
REMARK   54  A    between atoms: _140  and  _143
REMARK   55  A    between atoms: _143  and  _144
REMARK   56  A    between atoms: _144  and  _145
REMARK   57  A    between atoms: _145  and  _146
REMARK   58  A    between atoms: _146  and  _147
REMARK   59  A    between atoms: _151  and  _153
REMARK   60  A    between atoms: _153  and  _154
REMARK   61  A    between atoms: _153  and  _156
REMARK   62  A    between atoms: _156  and  _157
REMARK   63  A    between atoms: _157  and  _158
REMARK   64  A    between atoms: _160  and  _162
REMARK   65  A    between atoms: _162  and  _163
REMARK   66  A    between atoms: _162  and  _165
REMARK   67  A    between atoms: _165  and  _166
REMARK   68  A    between atoms: _171  and  _172
REMARK   69  A    between atoms: _174  and  _176
REMARK   70  A    between atoms: _176  and  _177
REMARK   71  A    between atoms: _176  and  _179
REMARK   72  A    between atoms: _179  and  _180
REMARK   73  A    between atoms: _183  and  _185
REMARK   74  A    between atoms: _185  and  _186
REMARK   75  A    between atoms: _185  and  _188
REMARK   76  A    between atoms: _188  and  _189
REMARK   77  A    between atoms: _195  and  _197
REMARK   78  A    between atoms: _197  and  _198
REMARK   79  A    between atoms: _197  and  _200
REMARK   80  A    between atoms: _200  and  _201
REMARK   81  A    between atoms: _206  and  _207
REMARK   82  A    between atoms: _209  and  _211
REMARK   83  A    between atoms: _211  and  _212
REMARK   84  A    between atoms: _214  and  _216
REMARK   85  A    between atoms: _216  and  _217
REMARK   86  A    between atoms: _219  and  _221
REMARK   87  A    between atoms: _221  and  _222
REMARK   88  A    between atoms: _221  and  _224
REMARK   89  A    between atoms: _224  and  _225
REMARK   90  A    between atoms: _235  and  _237
REMARK   91  A    between atoms: _237  and  _238
REMARK   92  A    between atoms: _237  and  _240
REMARK   93  A    between atoms: _240  and  _241
REMARK   94  A    between atoms: _246  and  _248
REMARK   95  A    between atoms: _248  and  _249
REMARK   96  A    between atoms: _248  and  _251
REMARK   97  A    between atoms: _251  and  _252
REMARK   98  A    between atoms: _257  and  _258
REMARK   99  A    between atoms: _260  and  _262
REMARK  100  A    between atoms: _262  and  _263
REMARK  101  A    between atoms: _262  and  _265
REMARK  102  A    between atoms: _265  and  _266
REMARK  103  A    between atoms: _271  and  _272
REMARK  104  A    between atoms: _274  and  _276
REMARK  105  A    between atoms: _276  and  _277
REMARK  106  A    between atoms: _276  and  _279
REMARK  107  A    between atoms: _279  and  _280
REMARK  108  A    between atoms: _280  and  _281
REMARK  109  A    between atoms: _281  and  _282
REMARK  110  A    between atoms: _291  and  _293
REMARK  111  A    between atoms: _293  and  _294
REMARK  112  A    between atoms: _293  and  _296
REMARK  113  A    between atoms: _296  and  _297
REMARK  114  A    between atoms: _297  and  _298
REMARK  115  A    between atoms: _298  and  _299
REMARK  116  A    between atoms: _299  and  _300
REMARK  117  A    between atoms: _304  and  _306
REMARK  118  A    between atoms: _306  and  _307
REMARK  119  A    between atoms: _306  and  _309
REMARK  120  A    between atoms: _309  and  _310
REMARK  121  A    between atoms: _310  and  _311
REMARK  122  A    between atoms: _314  and  _316
REMARK  123  A    between atoms: _316  and  _317
REMARK  124  A    between atoms: _316  and  _319
REMARK  125  A    between atoms: _322  and  _324
REMARK  126  A    between atoms: _324  and  _325
REMARK  127  A    between atoms: _324  and  _327
REMARK  128  A    between atoms: _327  and  _328
REMARK  129  A    between atoms: _338  and  _340
REMARK  130  A    between atoms: _340  and  _341
REMARK  131  A    between atoms: _340  and  _343
REMARK  132  A    between atoms: _343  and  _344
REMARK  133  A    between atoms: _344  and  _345
REMARK                            x       y       z     vdW  Elec       q    Type
REMARK                         _______ _______ _______ _____ _____    ______ ____
ROOT
ATOM      1  C   SER A   1      15.167 -12.642  33.099  0.00  0.00    +0.241 C 
ATOM      2  N   VAL A   2      14.128 -12.737  33.947  0.00  0.00    -0.298 N 
ATOM      3  H   VAL A   2      13.884 -13.666  34.346  0.00  0.00    +0.150 HD
ATOM      4  O   SER A   1      15.444 -11.553  32.586  0.00  0.00    -0.274 OA
ENDROOT
BRANCH   1   5
ATOM      5  CA  SER A   1      15.912 -13.906  32.798  0.00  0.00    +0.174 C 
BRANCH   5   6
ATOM      6  N   SER A   1      15.841 -14.939  33.849  0.00  0.00    -0.236 NA
ATOM      7  H   SER A   1      15.441 -15.874  33.633  0.00  0.00    +0.142 HD
ENDBRANCH   5   6
BRANCH   5   8
ATOM      8  CB  SER A   1      15.446 -14.508  31.484  0.00  0.00    +0.163 C 
BRANCH   8   9
ATOM      9  OG  SER A   1      16.358 -15.536  31.046  0.00  0.00    -0.380 OA
ATOM     10  H   SER A   1      16.401 -16.251  31.730  0.00  0.00    +0.211 HD
ENDBRANCH   8   9
ENDBRANCH   5   8
ENDBRANCH   1   5
BRANCH   2  11
ATOM     11  CA  VAL A   2      13.329 -11.564  34.324  0.00  0.00    +0.137 C 
BRANCH  11  12
ATOM     12  CB  VAL A   2      12.072 -11.990  35.261  0.00  0.00    +0.026 C 
ATOM     13  CG2 VAL A   2      11.296 -10.768  35.700  0.00  0.00    +0.002 C 
ATOM     14  CG1 VAL A   2      11.171 -12.963  34.487  0.00  0.00    +0.002 C 
ENDBRANCH  11  12
BRANCH  11  15
ATOM     15  C   VAL A   2      14.183 -10.542  35.084  0.00  0.00    +0.227 C 
ATOM     16  O   VAL A   2      13.881  -9.335  35.012  0.00  0.00    -0.286 OA
ENDBRANCH  11  15
ENDBRANCH   2  11
TORSDOF 7
REMARK  Name = ../refined-set-2016/3ary/3ary_pocket.pdb
REMARK  133 active torsions:
REMARK  status: ('A' for Active; 'I' for Inactive)
REMARK    1  A    between atoms: _1  and  _3
REMARK    2  A    between atoms: _3  and  _4
REMARK    3  A    between atoms: _3  and  _6
REMARK    4  A    between atoms: _6  and  _7
REMARK    5  A    between atoms: _17  and  _19
REMARK    6  A    between atoms: _19  and  _20
REMARK    7  A    between atoms: _19  and  _22
REMARK    8  A    between atoms: _22  and  _23
REMARK    9  A    between atoms: _29  and  _31
REMARK   10  A    between atoms: _31  and  _32
REMARK   11  A    between atoms: _31  and  _34
REMARK   12  A    between atoms: _34  and  _35
REMARK   13  A    between atoms: _37  and  _39
REMARK   14  A    between atoms: _39  and  _40
REMARK   15  A    between atoms: _39  and  _42
REMARK   16  A    between atoms: _45  and  _47
REMARK   17  A    between atoms: _47  and  _48
REMARK   18  A    between atoms: _47  and  _50
REMARK   19  A    between atoms: _50  and  _51
REMARK   20  A    between atoms: _53  and  _55
REMARK   21  A    between atoms: _55  and  _56
REMARK   22  A    between atoms: _55  and  _58
REMARK   23  A    between atoms: _61  and  _63
REMARK   24  A    between atoms: _63  and  _64
REMARK   25  A    between atoms: _66  and  _68
REMARK   26  A    between atoms: _68  and  _69
REMARK   27  A    between atoms: _68  and  _71
REMARK   28  A    between atoms: _71  and  _72
REMARK   29  A    between atoms: _82  and  _84
REMARK   30  A    between atoms: _84  and  _85
REMARK   31  A    between atoms: _84  and  _87
REMARK   32  A    between atoms: _87  and  _88
REMARK   33  A    between atoms: _91  and  _93
REMARK   34  A    between atoms: _93  and  _94
REMARK   35  A    between atoms: _93  and  _96
REMARK   36  A    between atoms: _96  and  _97
REMARK   37  A    between atoms: _100  and  _102
REMARK   38  A    between atoms: _102  and  _103
REMARK   39  A    between atoms: _102  and  _105
REMARK   40  A    between atoms: _105  and  _106
REMARK   41  A    between atoms: _106  and  _107
REMARK   42  A    between atoms: _110  and  _112
REMARK   43  A    between atoms: _112  and  _113
REMARK   44  A    between atoms: _112  and  _115
REMARK   45  A    between atoms: _115  and  _116
REMARK   46  A    between atoms: _122  and  _124
REMARK   47  A    between atoms: _124  and  _125
REMARK   48  A    between atoms: _127  and  _129
REMARK   49  A    between atoms: _129  and  _130
REMARK   50  A    between atoms: _132  and  _134
REMARK   51  A    between atoms: _134  and  _135
REMARK   52  A    between atoms: _138  and  _140
REMARK   53  A    between atoms: _140  and  _141
REMARK   54  A    between atoms: _140  and  _143
REMARK   55  A    between atoms: _143  and  _144
REMARK   56  A    between atoms: _144  and  _145
REMARK   57  A    between atoms: _145  and  _146
REMARK   58  A    between atoms: _146  and  _147
REMARK   59  A    between atoms: _151  and  _153
REMARK   60  A    between atoms: _153  and  _154
REMARK   61  A    between atoms: _153  and  _156
REMARK   62  A    between atoms: _156  and  _157
REMARK   63  A    between atoms: _157  and  _158
REMARK   64  A    between atoms: _160  and  _162
REMARK   65  A    between atoms: _162  and  _163
REMARK   66  A    between atoms: _162  and  _165
REMARK   67  A    between atoms: _165  and  _166
REMARK   68  A    between atoms: _171  and  _172
REMARK   69  A    between atoms: _174  and  _176
REMARK   70  A    between atoms: _176  and  _177
REMARK   71  A    between atoms: _176  and  _179
REMARK   72  A    between atoms: _179  and  _180
REMARK   73  A    between atoms: _183  and  _185
REMARK   74  A    between atoms: _185  and  _186
REMARK   75  A    between atoms: _185  and  _188
REMARK   76  A    between atoms: _188  and  _189
REMARK   77  A    between atoms: _195  and  _197
REMARK   78  A    between atoms: _197  and  _198
REMARK   79  A    between atoms: _197  and  _200
REMARK   80  A    between atoms: _200  and  _201
REMARK   81  A    between atoms: _206  and  _207
REMARK   82  A    between atoms: _209  and  _211
REMARK   83  A    between atoms: _211  and  _212
REMARK   84  A    between atoms: _214  and  _216
REMARK   85  A    between atoms: _216  and  _217
REMARK   86  A    between atoms: _219  and  _221
REMARK   87  A    between atoms: _221  and  _222
REMARK   88  A    between atoms: _221  and  _224
REMARK   89  A    between atoms: _224  and  _225
REMARK   90  A    between atoms: _235  and  _237
REMARK   91  A    between atoms: _237  and  _238
REMARK   92  A    between atoms: _237  and  _240
REMARK   93  A    between atoms: _240  and  _241
REMARK   94  A    between atoms: _246  and  _248
REMARK   95  A    between atoms: _248  and  _249
REMARK   96  A    between atoms: _248  and  _251
REMARK   97  A    between atoms: _251  and  _252
REMARK   98  A    between atoms: _257  and  _258
REMARK   99  A    between atoms: _260  and  _262
REMARK  100  A    between atoms: _262  and  _263
REMARK  101  A    between atoms: _262  and  _265
REMARK  102  A    between atoms: _265  and  _266
REMARK  103  A    between atoms: _271  and  _272
REMARK  104  A    between atoms: _274  and  _276
REMARK  105  A    between atoms: _276  and  _277
REMARK  106  A    between atoms: _276  and  _279
REMARK  107  A    between atoms: _279  and  _280
REMARK  108  A    between atoms: _280  and  _281
REMARK  109  A    between atoms: _281  and  _282
REMARK  110  A    between atoms: _291  and  _293
REMARK  111  A    between atoms: _293  and  _294
REMARK  112  A    between atoms: _293  and  _296
REMARK  113  A    between atoms: _296  and  _297
REMARK  114  A    between atoms: _297  and  _298
REMARK  115  A    between atoms: _298  and  _299
REMARK  116  A    between atoms: _299  and  _300
REMARK  117  A    between atoms: _304  and  _306
REMARK  118  A    between atoms: _306  and  _307
REMARK  119  A    between atoms: _306  and  _309
REMARK  120  A    between atoms: _309  and  _310
REMARK  121  A    between atoms: _310  and  _311
REMARK  122  A    between atoms: _314  and  _316
REMARK  123  A    between atoms: _316  and  _317
REMARK  124  A    between atoms: _316  and  _319
REMARK  125  A    between atoms: _322  and  _324
REMARK  126  A    between atoms: _324  and  _325
REMARK  127  A    between atoms: _324  and  _327
REMARK  128  A    between atoms: _327  and  _328
REMARK  129  A    between atoms: _338  and  _340
REMARK  130  A    between atoms: _340  and  _341
REMARK  131  A    between atoms: _340  and  _343
REMARK  132  A    between atoms: _343  and  _344
REMARK  133  A    between atoms: _344  and  _345
REMARK                            x       y       z     vdW  Elec       q    Type
REMARK                         _______ _______ _______ _____ _____    ______ ____
ROOT
ATOM      1  C   SER A   1      16.722  -7.259  32.993  0.00  0.00    +0.241 C 
ATOM      2  N   VAL A   2      15.416  -7.159  33.367  0.00  0.00    -0.298 N 
ATOM      3  H   VAL A   2      14.992  -8.000  33.808  0.00  0.00    +0.150 HD
ATOM      4  O   SER A   1      17.343  -6.286  32.477  0.00  0.00    -0.274 OA
ENDROOT
BRANCH   1   5
ATOM      5  CA  SER A   1      17.541  -8.515  33.242  0.00  0.00    +0.174 C 
BRANCH   5   6
ATOM      6  N   SER A   1      16.922  -9.383  34.226  0.00  0.00    -0.236 NA
ATOM      7  H   SER A   1      16.529 -10.294  33.915  0.00  0.00    +0.142 HD
ENDBRANCH   5   6
BRANCH   5   8
ATOM      8  CB  SER A   1      17.823  -9.334  31.939  0.00  0.00    +0.163 C 
BRANCH   8   9
ATOM      9  OG  SER A   1      16.581  -9.544  31.256  0.00  0.00    -0.380 OA
ATOM     10  H   SER A   1      15.963 -10.046  31.844  0.00  0.00    +0.211 HD
ENDBRANCH   8   9
ENDBRANCH   5   8
ENDBRANCH   1   5
BRANCH   2  11
ATOM     11  CA  VAL A   2      14.542  -5.982  33.211  0.00  0.00    +0.137 C 
BRANCH  11  12
ATOM     12  CB  VAL A   2      13.042  -6.525  33.332  0.00  0.00    +0.026 C 
ATOM     13  CG2 VAL A   2      12.027  -5.439  33.486  0.00  0.00    +0.002 C 
ATOM     14  CG1 VAL A   2      12.747  -7.348  32.010  0.00  0.00    +0.002 C 
ENDBRANCH  11  12
BRANCH  11  15
ATOM     15  C   VAL A   2      14.879  -5.005  34.410  0.00  0.00    +0.227 C 
ATOM     16  O   VAL A   2      14.451  -3.825  34.361  0.00  0.00    -0.286 OA
ENDBRANCH  11  15
ENDBRANCH   2  11
TORSDOF 7
REMARK  Name = ../refined-set-2016/3ary/3ary_pocket.pdb
REMARK  133 active torsions:
REMARK  status: ('A' for Active; 'I' for Inactive)
REMARK    1  A    between atoms: _1  and  _3
REMARK    2  A    between atoms: _3  and  _4
REMARK    3  A    between atoms: _3  and  _6
REMARK    4  A    between atoms: _6  and  _7
REMARK    5  A    between atoms: _17  and  _19
REMARK    6  A    between atoms: _19  and  _20
REMARK    7  A    between atoms: _19  and  _22
REMARK    8  A    between atoms: _22  and  _23
REMARK    9  A    between atoms: _29  and  _31
REMARK   10  A    between atoms: _31  and  _32
REMARK   11  A    between atoms: _31  and  _34
REMARK   12  A    between atoms: _34  and  _35
REMARK   13  A    between atoms: _37  and  _39
REMARK   14  A    between atoms: _39  and  _40
REMARK   15  A    between atoms: _39  and  _42
REMARK   16  A    between atoms: _45  and  _47
REMARK   17  A    between atoms: _47  and  _48
REMARK   18  A    between atoms: _47  and  _50
REMARK   19  A    between atoms: _50  and  _51
REMARK   20  A    between atoms: _53  and  _55
REMARK   21  A    between atoms: _55  and  _56
REMARK   22  A    between atoms: _55  and  _58
REMARK   23  A    between atoms: _61  and  _63
REMARK   24  A    between atoms: _63  and  _64
REMARK   25  A    between atoms: _66  and  _68
REMARK   26  A    between atoms: _68  and  _69
REMARK   27  A    between atoms: _68  and  _71
REMARK   28  A    between atoms: _71  and  _72
REMARK   29  A    between atoms: _82  and  _84
REMARK   30  A    between atoms: _84  and  _85
REMARK   31  A    between atoms: _84  and  _87
REMARK   32  A    between atoms: _87  and  _88
REMARK   33  A    between atoms: _91  and  _93
REMARK   34  A    between atoms: _93  and  _94
REMARK   35  A    between atoms: _93  and  _96
REMARK   36  A    between atoms: _96  and  _97
REMARK   37  A    between atoms: _100  and  _102
REMARK   38  A    between atoms: _102  and  _103
REMARK   39  A    between atoms: _102  and  _105
REMARK   40  A    between atoms: _105  and  _106
REMARK   41  A    between atoms: _106  and  _107
REMARK   42  A    between atoms: _110  and  _112
REMARK   43  A    between atoms: _112  and  _113
REMARK   44  A    between atoms: _112  and  _115
REMARK   45  A    between atoms: _115  and  _116
REMARK   46  A    between atoms: _122  and  _124
REMARK   47  A    between atoms: _124  and  _125
REMARK   48  A    between atoms: _127  and  _129
REMARK   49  A    between atoms: _129  and  _130
REMARK   50  A    between atoms: _132  and  _134
REMARK   51  A    between atoms: _134  and  _135
REMARK   52  A    between atoms: _138  and  _140
REMARK   53  A    between atoms: _140  and  _141
REMARK   54  A    between atoms: _140  and  _143
REMARK   55  A    between atoms: _143  and  _144
REMARK   56  A    between atoms: _144  and  _145
REMARK   57  A    between atoms: _145  and  _146
REMARK   58  A    between atoms: _146  and  _147
REMARK   59  A    between atoms: _151  and  _153
REMARK   60  A    between atoms: _153  and  _154
REMARK   61  A    between atoms: _153  and  _156
REMARK   62  A    between atoms: _156  and  _157
REMARK   63  A    between atoms: _157  and  _158
REMARK   64  A    between atoms: _160  and  _162
REMARK   65  A    between atoms: _162  and  _163
REMARK   66  A    between atoms: _162  and  _165
REMARK   67  A    between atoms: _165  and  _166
REMARK   68  A    between atoms: _171  and  _172
REMARK   69  A    between atoms: _174  and  _176
REMARK   70  A    between atoms: _176  and  _177
REMARK   71  A    between atoms: _176  and  _179
REMARK   72  A    between atoms: _179  and  _180
REMARK   73  A    between atoms: _183  and  _185
REMARK   74  A    between atoms: _185  and  _186
REMARK   75  A    between atoms: _185  and  _188
REMARK   76  A    between atoms: _188  and  _189
REMARK   77  A    between atoms: _195  and  _197
REMARK   78  A    between atoms: _197  and  _198
REMARK   79  A    between atoms: _197  and  _200
REMARK   80  A    between atoms: _200  and  _201
REMARK   81  A    between atoms: _206  and  _207
REMARK   82  A    between atoms: _209  and  _211
REMARK   83  A    between atoms: _211  and  _212
REMARK   84  A    between atoms: _214  and  _216
REMARK   85  A    between atoms: _216  and  _217
REMARK   86  A    between atoms: _219  and  _221
REMARK   87  A    between atoms: _221  and  _222
REMARK   88  A    between atoms: _221  and  _224
REMARK   89  A    between atoms: _224  and  _225
REMARK   90  A    between atoms: _235  and  _237
REMARK   91  A    between atoms: _237  and  _238
REMARK   92  A    between atoms: _237  and  _240
REMARK   93  A    between atoms: _240  and  _241
REMARK   94  A    between atoms: _246  and  _248
REMARK   95  A    between atoms: _248  and  _249
REMARK   96  A    between atoms: _248  and  _251
REMARK   97  A    between atoms: _251  and  _252
REMARK   98  A    between atoms: _257  and  _258
REMARK   99  A    between atoms: _260  and  _262
REMARK  100  A    between atoms: _262  and  _263
REMARK  101  A    between atoms: _262  and  _265
REMARK  102  A    between atoms: _265  and  _266
REMARK  103  A    between atoms: _271  and  _272
REMARK  104  A    between atoms: _274  and  _276
REMARK  105  A    between atoms: _276  and  _277
REMARK  106  A    between atoms: _276  and  _279
REMARK  107  A    between atoms: _279  and  _280
REMARK  108  A    between atoms: _280  and  _281
REMARK  109  A    between atoms: _281  and  _282
REMARK  110  A    between atoms: _291  and  _293
REMARK  111  A    between atoms: _293  and  _294
REMARK  112  A    between atoms: _293  and  _296
REMARK  113  A    between atoms: _296  and  _297
REMARK  114  A    between atoms: _297  and  _298
REMARK  115  A    between atoms: _298  and  _299
REMARK  116  A    between atoms: _299  and  _300
REMARK  117  A    between atoms: _304  and  _306
REMARK  118  A    between atoms: _306  and  _307
REMARK  119  A    between atoms: _306  and  _309
REMARK  120  A    between atoms: _309  and  _310
REMARK  121  A    between atoms: _310  and  _311
REMARK  122  A    between atoms: _314  and  _316
REMARK  123  A    between atoms: _316  and  _317
REMARK  124  A    between atoms: _316  and  _319
REMARK  125  A    between atoms: _322  and  _324
REMARK  126  A    between atoms: _324  and  _325
REMARK  127  A    between atoms: _324  and  _327
REMARK  128  A    between atoms: _327  and  _328
REMARK  129  A    between atoms: _338  and  _340
REMARK  130  A    between atoms: _340  and  _341
REMARK  131  A    between atoms: _340  and  _343
REMARK  132  A    between atoms: _343  and  _344
REMARK  133  A    between atoms: _344  and  _345
REMARK                            x       y       z     vdW  Elec       q    Type
REMARK                         _______ _______ _______ _____ _____    ______ ____
ROOT
ATOM      1  C   TRP A   2      12.437 -13.009  27.181  0.00  0.00    +0.241 C 
ATOM      2  N   THR A   3      11.813 -12.363  28.132  0.00  0.00    -0.295 N 
ATOM      3  H   THR A   3      10.990 -11.780  27.879  0.00  0.00    +0.150 HD
ATOM      4  O   TRP A   2      13.364 -13.755  27.366  0.00  0.00    -0.273 OA
ENDROOT
BRANCH   1   5
ATOM      5  CA  TRP A   2      12.012 -12.691  25.735  0.00  0.00    +0.153 C 
BRANCH   5   8
ATOM      6  C   GLY A   1       9.771 -13.704  25.820  0.00  0.00    +0.240 C 
ATOM      7  O   GLY A   1      10.276 -14.679  26.392  0.00  0.00    -0.274 OA
ATOM      8  N   TRP A   2      10.536 -12.662  25.559  0.00  0.00    -0.297 N 
ATOM      9  H   TRP A   2      10.090 -11.787  25.217  0.00  0.00    +0.150 HD
BRANCH   6  10
ATOM     10  CA  GLY A   1       8.317 -13.547  25.489  0.00  0.00    +0.169 C 
BRANCH  10  11
ATOM     11  N   GLY A   1       7.560 -14.713  25.984  0.00  0.00    -0.236 NA
ATOM     12  H   GLY A   1       7.535 -15.586  25.419  0.00  0.00    +0.142 HD
ENDBRANCH  10  11
ENDBRANCH   6  10
ENDBRANCH   5   8
BRANCH   5  13
ATOM     13  CB  TRP A   2      12.602 -11.339  25.217  0.00  0.00    +0.057 C 
BRANCH  13  14
ATOM     14  CG  TRP A   2      14.116 -11.274  25.346  0.00  0.00    -0.002 A 
ATOM     15  CD1 TRP A   2      14.855 -10.634  26.310  0.00  0.00    +0.068 A 
ATOM     16  NE1 TRP A   2      16.233 -10.800  26.057  0.00  0.00    -0.352 N 
ATOM     17  HE1 TRP A   2      17.015 -10.399  26.613  0.00  0.00    +0.166 HD
ATOM     18  CE2 TRP A   2      16.349 -11.585  24.946  0.00  0.00    +0.056 A 
ATOM     19  CZ2 TRP A   2      17.499 -12.055  24.285  0.00  0.00    +0.017 A 
ATOM     20  CH2 TRP A   2      17.339 -12.764  23.171  0.00  0.00    +0.001 A 
ATOM     21  CZ3 TRP A   2      16.107 -13.094  22.678  0.00  0.00    +0.000 A 
ATOM     22  CE3 TRP A   2      14.938 -12.655  23.327  0.00  0.00    +0.001 A 
ATOM     23  CD2 TRP A   2      15.042 -11.891  24.465  0.00  0.00    +0.013 A 
ENDBRANCH  13  14
ENDBRANCH   5  13
ENDBRANCH   1   5
BRANCH   2  24
ATOM     24  CA  THR A   3      12.216 -12.423  29.518  0.00  0.00    +0.176 C 
BRANCH  24  25
ATOM     25  C   THR A   3      11.528 -13.513  30.333  0.00  0.00    +0.243 C 
ATOM     26  O   THR A   3      12.043 -13.856  31.427  0.00  0.00    -0.273 OA
ATOM     27  N   LEU A   4      10.464 -14.095  29.796  0.00  0.00    -0.298 N 
ATOM     28  H   LEU A   4      10.266 -13.941  28.787  0.00  0.00    +0.150 HD
BRANCH  27  29
ATOM     29  CA  LEU A   4       9.526 -14.975  30.595  0.00  0.00    +0.137 C 
BRANCH  29  30
ATOM     30  C   LEU A   4       9.492 -16.364  29.933  0.00  0.00    +0.227 C 
ATOM     31  O   LEU A   4       8.588 -17.173  30.165  0.00  0.00    -0.286 OA
ENDBRANCH  29  30
BRANCH  29  32
ATOM     32  CB  LEU A   4       8.107 -14.425  30.749  0.00  0.00    +0.028 C 
BRANCH  32  33
ATOM     33  CG  LEU A   4       8.110 -13.204  31.677  0.00  0.00    +0.002 C 
ATOM     34  CD2 LEU A   4       8.254 -13.770  33.113  0.00  0.00    +0.000 C 
ATOM     35  CD1 LEU A   4       6.743 -12.452  31.526  0.00  0.00    +0.000 C 
ENDBRANCH  32  33
ENDBRANCH  29  32
ENDBRANCH  27  29
ENDBRANCH  24  25
BRANCH  24  36
ATOM     36  CB  THR A   3      11.939 -11.057  30.295  0.00  0.00    +0.137 C 
ATOM     37  CG2 THR A   3      12.634  -9.928  29.447  0.00  0.00    +0.034 C 
BRANCH  36  38
ATOM     38  OG1 THR A   3      10.591 -10.775  30.352  0.00  0.00    -0.382 OA
ATOM     39  HG1 THR A   3      10.233 -10.692  29.433  0.00  0.00    +0.210 HD
ENDBRANCH  36  38
ENDBRANCH  24  36
ENDBRANCH   2  24
TORSDOF 14
REMARK  Name = ../refined-set-2016/3ary/3ary_pocket.pdb
REMARK  133 active torsions:
REMARK  status: ('A' for Active; 'I' for Inactive)
REMARK    1  A    between atoms: _1  and  _3
REMARK    2  A    between atoms: _3  and  _4
REMARK    3  A    between atoms: _3  and  _6
REMARK    4  A    between atoms: _6  and  _7
REMARK    5  A    between atoms: _17  and  _19
REMARK    6  A    between atoms: _19  and  _20
REMARK    7  A    between atoms: _19  and  _22
REMARK    8  A    between atoms: _22  and  _23
REMARK    9  A    between atoms: _29  and  _31
REMARK   10  A    between atoms: _31  and  _32
REMARK   11  A    between atoms: _31  and  _34
REMARK   12  A    between atoms: _34  and  _35
REMARK   13  A    between atoms: _37  and  _39
REMARK   14  A    between atoms: _39  and  _40
REMARK   15  A    between atoms: _39  and  _42
REMARK   16  A    between atoms: _45  and  _47
REMARK   17  A    between atoms: _47  and  _48
REMARK   18  A    between atoms: _47  and  _50
REMARK   19  A    between atoms: _50  and  _51
REMARK   20  A    between atoms: _53  and  _55
REMARK   21  A    between atoms: _55  and  _56
REMARK   22  A    between atoms: _55  and  _58
REMARK   23  A    between atoms: _61  and  _63
REMARK   24  A    between atoms: _63  and  _64
REMARK   25  A    between atoms: _66  and  _68
REMARK   26  A    between atoms: _68  and  _69
REMARK   27  A    between atoms: _68  and  _71
REMARK   28  A    between atoms: _71  and  _72
REMARK   29  A    between atoms: _82  and  _84
REMARK   30  A    between atoms: _84  and  _85
REMARK   31  A    between atoms: _84  and  _87
REMARK   32  A    between atoms: _87  and  _88
REMARK   33  A    between atoms: _91  and  _93
REMARK   34  A    between atoms: _93  and  _94
REMARK   35  A    between atoms: _93  and  _96
REMARK   36  A    between atoms: _96  and  _97
REMARK   37  A    between atoms: _100  and  _102
REMARK   38  A    between atoms: _102  and  _103
REMARK   39  A    between atoms: _102  and  _105
REMARK   40  A    between atoms: _105  and  _106
REMARK   41  A    between atoms: _106  and  _107
REMARK   42  A    between atoms: _110  and  _112
REMARK   43  A    between atoms: _112  and  _113
REMARK   44  A    between atoms: _112  and  _115
REMARK   45  A    between atoms: _115  and  _116
REMARK   46  A    between atoms: _122  and  _124
REMARK   47  A    between atoms: _124  and  _125
REMARK   48  A    between atoms: _127  and  _129
REMARK   49  A    between atoms: _129  and  _130
REMARK   50  A    between atoms: _132  and  _134
REMARK   51  A    between atoms: _134  and  _135
REMARK   52  A    between atoms: _138  and  _140
REMARK   53  A    between atoms: _140  and  _141
REMARK   54  A    between atoms: _140  and  _143
REMARK   55  A    between atoms: _143  and  _144
REMARK   56  A    between atoms: _144  and  _145
REMARK   57  A    between atoms: _145  and  _146
REMARK   58  A    between atoms: _146  and  _147
REMARK   59  A    between atoms: _151  and  _153
REMARK   60  A    between atoms: _153  and  _154
REMARK   61  A    between atoms: _153  and  _156
REMARK   62  A    between atoms: _156  and  _157
REMARK   63  A    between atoms: _157  and  _158
REMARK   64  A    between atoms: _160  and  _162
REMARK   65  A    between atoms: _162  and  _163
REMARK   66  A    between atoms: _162  and  _165
REMARK   67  A    between atoms: _165  and  _166
REMARK   68  A    between atoms: _171  and  _172
REMARK   69  A    between atoms: _174  and  _176
REMARK   70  A    between atoms: _176  and  _177
REMARK   71  A    between atoms: _176  and  _179
REMARK   72  A    between atoms: _179  and  _180
REMARK   73  A    between atoms: _183  and  _185
REMARK   74  A    between atoms: _185  and  _186
REMARK   75  A    between atoms: _185  and  _188
REMARK   76  A    between atoms: _188  and  _189
REMARK   77  A    between atoms: _195  and  _197
REMARK   78  A    between atoms: _197  and  _198
REMARK   79  A    between atoms: _197  and  _200
REMARK   80  A    between atoms: _200  and  _201
REMARK   81  A    between atoms: _206  and  _207
REMARK   82  A    between atoms: _209  and  _211
REMARK   83  A    between atoms: _211  and  _212
REMARK   84  A    between atoms: _214  and  _216
REMARK   85  A    between atoms: _216  and  _217
REMARK   86  A    between atoms: _219  and  _221
REMARK   87  A    between atoms: _221  and  _222
REMARK   88  A    between atoms: _221  and  _224
REMARK   89  A    between atoms: _224  and  _225
REMARK   90  A    between atoms: _235  and  _237
REMARK   91  A    between atoms: _237  and  _238
REMARK   92  A    between atoms: _237  and  _240
REMARK   93  A    between atoms: _240  and  _241
REMARK   94  A    between atoms: _246  and  _248
REMARK   95  A    between atoms: _248  and  _249
REMARK   96  A    between atoms: _248  and  _251
REMARK   97  A    between atoms: _251  and  _252
REMARK   98  A    between atoms: _257  and  _258
REMARK   99  A    between atoms: _260  and  _262
REMARK  100  A    between atoms: _262  and  _263
REMARK  101  A    between atoms: _262  and  _265
REMARK  102  A    between atoms: _265  and  _266
REMARK  103  A    between atoms: _271  and  _272
REMARK  104  A    between atoms: _274  and  _276
REMARK  105  A    between atoms: _276  and  _277
REMARK  106  A    between atoms: _276  and  _279
REMARK  107  A    between atoms: _279  and  _280
REMARK  108  A    between atoms: _280  and  _281
REMARK  109  A    between atoms: _281  and  _282
REMARK  110  A    between atoms: _291  and  _293
REMARK  111  A    between atoms: _293  and  _294
REMARK  112  A    between atoms: _293  and  _296
REMARK  113  A    between atoms: _296  and  _297
REMARK  114  A    between atoms: _297  and  _298
REMARK  115  A    between atoms: _298  and  _299
REMARK  116  A    between atoms: _299  and  _300
REMARK  117  A    between atoms: _304  and  _306
REMARK  118  A    between atoms: _306  and  _307
REMARK  119  A    between atoms: _306  and  _309
REMARK  120  A    between atoms: _309  and  _310
REMARK  121  A    between atoms: _310  and  _311
REMARK  122  A    between atoms: _314  and  _316
REMARK  123  A    between atoms: _316  and  _317
REMARK  124  A    between atoms: _316  and  _319
REMARK  125  A    between atoms: _322  and  _324
REMARK  126  A    between atoms: _324  and  _325
REMARK  127  A    between atoms: _324  and  _327
REMARK  128  A    between atoms: _327  and  _328
REMARK  129  A    between atoms: _338  and  _340
REMARK  130  A    between atoms: _340  and  _341
REMARK  131  A    between atoms: _340  and  _343
REMARK  132  A    between atoms: _343  and  _344
REMARK  133  A    between atoms: _344  and  _345
REMARK                            x       y       z     vdW  Elec       q    Type
REMARK                         _______ _______ _______ _____ _____    ______ ____
ROOT
ATOM      1  C   GLU A   1      13.217 -18.280  23.414  0.00  0.00    +0.238 C 
ATOM      2  O   GLU A   1      13.719 -17.806  24.426  0.00  0.00    -0.274 OA
ATOM      3  N   PHE A   2      13.708 -19.430  22.906  0.00  0.00    -0.298 N 
ATOM      4  H   PHE A   2      14.479 -19.892  23.429  0.00  0.00    +0.150 HD
ENDROOT
BRANCH   1   5
ATOM      5  CA  GLU A   1      11.971 -17.667  22.776  0.00  0.00    +0.145 C 
BRANCH   5   6
ATOM      6  N   GLU A   1      10.750 -18.254  23.461  0.00  0.00    -0.238 NA
ATOM      7  H   GLU A   1      10.623 -18.122  24.485  0.00  0.00    +0.142 HD
ENDBRANCH   5   6
BRANCH   5   8
ATOM      8  CB  GLU A   1      11.942 -16.106  22.897  0.00  0.00    +0.038 C 
BRANCH   8   9
ATOM      9  CG  GLU A   1      10.696 -15.577  22.297  0.00  0.00    +0.116 C 
BRANCH   9  10
ATOM     10  CD  GLU A   1      10.630 -14.085  22.258  0.00  0.00    +0.365 C 
ATOM     11  OE2 GLU A   1      11.695 -13.459  22.291  0.00  0.00    -0.246 OA
ATOM     12  OE1 GLU A   1       9.483 -13.556  22.144  0.00  0.00    -0.246 OA
ENDBRANCH   9  10
ENDBRANCH   8   9
ENDBRANCH   5   8
ENDBRANCH   1   5
BRANCH   3  13
ATOM     13  CA  PHE A   2      13.244 -20.081  21.677  0.00  0.00    +0.141 C 
BRANCH  13  14
ATOM     14  C   PHE A   2      13.553 -21.578  21.914  0.00  0.00    +0.227 C 
ATOM     15  O   PHE A   2      14.554 -21.925  22.571  0.00  0.00    -0.286 OA
ENDBRANCH  13  14
BRANCH  13  16
ATOM     16  CB  PHE A   2      14.106 -19.698  20.452  0.00  0.00    +0.054 C 
BRANCH  16  17
ATOM     17  CG  PHE A   2      14.108 -18.202  20.170  0.00  0.00    -0.020 A 
ATOM     18  CD2 PHE A   2      15.061 -17.394  20.661  0.00  0.00    -0.004 A 
ATOM     19  CE2 PHE A   2      15.056 -15.949  20.357  0.00  0.00    -0.000 A 
ATOM     20  CZ  PHE A   2      14.025 -15.418  19.674  0.00  0.00    -0.000 A 
ATOM     21  CE1 PHE A   2      13.027 -16.240  19.156  0.00  0.00    -0.000 A 
ATOM     22  CD1 PHE A   2      13.077 -17.677  19.402  0.00  0.00    -0.004 A 
ENDBRANCH  16  17
ENDBRANCH  13  16
ENDBRANCH   3  13
TORSDOF 9
REMARK  Name = ../refined-set-2016/3ary/3ary_pocket.pdb
REMARK  133 active torsions:
REMARK  status: ('A' for Active; 'I' for Inactive)
REMARK    1  A    between atoms: _1  and  _3
REMARK    2  A    between atoms: _3  and  _4
REMARK    3  A    between atoms: _3  and  _6
REMARK    4  A    between atoms: _6  and  _7
REMARK    5  A    between atoms: _17  and  _19
REMARK    6  A    between atoms: _19  and  _20
REMARK    7  A    between atoms: _19  and  _22
REMARK    8  A    between atoms: _22  and  _23
REMARK    9  A    between atoms: _29  and  _31
REMARK   10  A    between atoms: _31  and  _32
REMARK   11  A    between atoms: _31  and  _34
REMARK   12  A    between atoms: _34  and  _35
REMARK   13  A    between atoms: _37  and  _39
REMARK   14  A    between atoms: _39  and  _40
REMARK   15  A    between atoms: _39  and  _42
REMARK   16  A    between atoms: _45  and  _47
REMARK   17  A    between atoms: _47  and  _48
REMARK   18  A    between atoms: _47  and  _50
REMARK   19  A    between atoms: _50  and  _51
REMARK   20  A    between atoms: _53  and  _55
REMARK   21  A    between atoms: _55  and  _56
REMARK   22  A    between atoms: _55  and  _58
REMARK   23  A    between atoms: _61  and  _63
REMARK   24  A    between atoms: _63  and  _64
REMARK   25  A    between atoms: _66  and  _68
REMARK   26  A    between atoms: _68  and  _69
REMARK   27  A    between atoms: _68  and  _71
REMARK   28  A    between atoms: _71  and  _72
REMARK   29  A    between atoms: _82  and  _84
REMARK   30  A    between atoms: _84  and  _85
REMARK   31  A    between atoms: _84  and  _87
REMARK   32  A    between atoms: _87  and  _88
REMARK   33  A    between atoms: _91  and  _93
REMARK   34  A    between atoms: _93  and  _94
REMARK   35  A    between atoms: _93  and  _96
REMARK   36  A    between atoms: _96  and  _97
REMARK   37  A    between atoms: _100  and  _102
REMARK   38  A    between atoms: _102  and  _103
REMARK   39  A    between atoms: _102  and  _105
REMARK   40  A    between atoms: _105  and  _106
REMARK   41  A    between atoms: _106  and  _107
REMARK   42  A    between atoms: _110  and  _112
REMARK   43  A    between atoms: _112  and  _113
REMARK   44  A    between atoms: _112  and  _115
REMARK   45  A    between atoms: _115  and  _116
REMARK   46  A    between atoms: _122  and  _124
REMARK   47  A    between atoms: _124  and  _125
REMARK   48  A    between atoms: _127  and  _129
REMARK   49  A    between atoms: _129  and  _130
REMARK   50  A    between atoms: _132  and  _134
REMARK   51  A    between atoms: _134  and  _135
REMARK   52  A    between atoms: _138  and  _140
REMARK   53  A    between atoms: _140  and  _141
REMARK   54  A    between atoms: _140  and  _143
REMARK   55  A    between atoms: _143  and  _144
REMARK   56  A    between atoms: _144  and  _145
REMARK   57  A    between atoms: _145  and  _146
REMARK   58  A    between atoms: _146  and  _147
REMARK   59  A    between atoms: _151  and  _153
REMARK   60  A    between atoms: _153  and  _154
REMARK   61  A    between atoms: _153  and  _156
REMARK   62  A    between atoms: _156  and  _157
REMARK   63  A    between atoms: _157  and  _158
REMARK   64  A    between atoms: _160  and  _162
REMARK   65  A    between atoms: _162  and  _163
REMARK   66  A    between atoms: _162  and  _165
REMARK   67  A    between atoms: _165  and  _166
REMARK   68  A    between atoms: _171  and  _172
REMARK   69  A    between atoms: _174  and  _176
REMARK   70  A    between atoms: _176  and  _177
REMARK   71  A    between atoms: _176  and  _179
REMARK   72  A    between atoms: _179  and  _180
REMARK   73  A    between atoms: _183  and  _185
REMARK   74  A    between atoms: _185  and  _186
REMARK   75  A    between atoms: _185  and  _188
REMARK   76  A    between atoms: _188  and  _189
REMARK   77  A    between atoms: _195  and  _197
REMARK   78  A    between atoms: _197  and  _198
REMARK   79  A    between atoms: _197  and  _200
REMARK   80  A    between atoms: _200  and  _201
REMARK   81  A    between atoms: _206  and  _207
REMARK   82  A    between atoms: _209  and  _211
REMARK   83  A    between atoms: _211  and  _212
REMARK   84  A    between atoms: _214  and  _216
REMARK   85  A    between atoms: _216  and  _217
REMARK   86  A    between atoms: _219  and  _221
REMARK   87  A    between atoms: _221  and  _222
REMARK   88  A    between atoms: _221  and  _224
REMARK   89  A    between atoms: _224  and  _225
REMARK   90  A    between atoms: _235  and  _237
REMARK   91  A    between atoms: _237  and  _238
REMARK   92  A    between atoms: _237  and  _240
REMARK   93  A    between atoms: _240  and  _241
REMARK   94  A    between atoms: _246  and  _248
REMARK   95  A    between atoms: _248  and  _249
REMARK   96  A    between atoms: _248  and  _251
REMARK   97  A    between atoms: _251  and  _252
REMARK   98  A    between atoms: _257  and  _258
REMARK   99  A    between atoms: _260  and  _262
REMARK  100  A    between atoms: _262  and  _263
REMARK  101  A    between atoms: _262  and  _265
REMARK  102  A    between atoms: _265  and  _266
REMARK  103  A    between atoms: _271  and  _272
REMARK  104  A    between atoms: _274  and  _276
REMARK  105  A    between atoms: _276  and  _277
REMARK  106  A    between atoms: _276  and  _279
REMARK  107  A    between atoms: _279  and  _280
REMARK  108  A    between atoms: _280  and  _281
REMARK  109  A    between atoms: _281  and  _282
REMARK  110  A    between atoms: _291  and  _293
REMARK  111  A    between atoms: _293  and  _294
REMARK  112  A    between atoms: _293  and  _296
REMARK  113  A    between atoms: _296  and  _297
REMARK  114  A    between atoms: _297  and  _298
REMARK  115  A    between atoms: _298  and  _299
REMARK  116  A    between atoms: _299  and  _300
REMARK  117  A    between atoms: _304  and  _306
REMARK  118  A    between atoms: _306  and  _307
REMARK  119  A    between atoms: _306  and  _309
REMARK  120  A    between atoms: _309  and  _310
REMARK  121  A    between atoms: _310  and  _311
REMARK  122  A    between atoms: _314  and  _316
REMARK  123  A    between atoms: _316  and  _317
REMARK  124  A    between atoms: _316  and  _319
REMARK  125  A    between atoms: _322  and  _324
REMARK  126  A    between atoms: _324  and  _325
REMARK  127  A    between atoms: _324  and  _327
REMARK  128  A    between atoms: _327  and  _328
REMARK  129  A    between atoms: _338  and  _340
REMARK  130  A    between atoms: _340  and  _341
REMARK  131  A    between atoms: _340  and  _343
REMARK  132  A    between atoms: _343  and  _344
REMARK  133  A    between atoms: _344  and  _345
REMARK                            x       y       z     vdW  Elec       q    Type
REMARK                         _______ _______ _______ _____ _____    ______ ____
ROOT
ATOM      1  CA  GLY A   2      17.078 -16.472  23.854  0.00  0.00    +0.176 C 
ENDROOT
BRANCH   1   3
ATOM      2  C   GLY A   1      18.627 -17.343  22.192  0.00  0.00    +0.240 C 
ATOM      3  N   GLY A   2      17.925 -17.505  23.266  0.00  0.00    -0.295 N 
ATOM      4  H   GLY A   2      17.967 -18.429  23.741  0.00  0.00    +0.150 HD
ATOM      5  O   GLY A   1      18.641 -16.250  21.530  0.00  0.00    -0.274 OA
BRANCH   2   6
ATOM      6  CA  GLY A   1      19.530 -18.443  21.711  0.00  0.00    +0.169 C 
BRANCH   6   7
ATOM      7  N   GLY A   1      19.213 -19.716  22.403  0.00  0.00    -0.236 NA
ATOM      8  H   GLY A   1      19.744 -19.970  23.261  0.00  0.00    +0.142 HD
ENDBRANCH   6   7
ENDBRANCH   2   6
ENDBRANCH   1   3
BRANCH   1   9
ATOM      9  C   GLY A   2      17.853 -15.766  25.008  0.00  0.00    +0.243 C 
ATOM     10  N   ALA A   3      17.106 -15.239  25.955  0.00  0.00    -0.298 N 
ATOM     11  H   ALA A   3      16.072 -15.350  25.932  0.00  0.00    +0.150 HD
ATOM     12  O   GLY A   2      19.095 -15.673  25.012  0.00  0.00    -0.273 OA
BRANCH  10  13
ATOM     13  CA  ALA A   3      17.761 -14.477  27.067  0.00  0.00    +0.137 C 
ATOM     14  CB  ALA A   3      16.605 -13.805  27.852  0.00  0.00    +0.030 C 
BRANCH  13  15
ATOM     15  C   ALA A   3      18.594 -15.366  27.959  0.00  0.00    +0.227 C 
ATOM     16  O   ALA A   3      19.617 -14.863  28.450  0.00  0.00    -0.286 OA
ENDBRANCH  13  15
ENDBRANCH  10  13
ENDBRANCH   1   9
TORSDOF 6
REMARK  Name = ../refined-set-2016/3ary/3ary_pocket.pdb
REMARK  133 active torsions:
REMARK  status: ('A' for Active; 'I' for Inactive)
REMARK    1  A    between atoms: _1  and  _3
REMARK    2  A    between atoms: _3  and  _4
REMARK    3  A    between atoms: _3  and  _6
REMARK    4  A    between atoms: _6  and  _7
REMARK    5  A    between atoms: _17  and  _19
REMARK    6  A    between atoms: _19  and  _20
REMARK    7  A    between atoms: _19  and  _22
REMARK    8  A    between atoms: _22  and  _23
REMARK    9  A    between atoms: _29  and  _31
REMARK   10  A    between atoms: _31  and  _32
REMARK   11  A    between atoms: _31  and  _34
REMARK   12  A    between atoms: _34  and  _35
REMARK   13  A    between atoms: _37  and  _39
REMARK   14  A    between atoms: _39  and  _40
REMARK   15  A    between atoms: _39  and  _42
REMARK   16  A    between atoms: _45  and  _47
REMARK   17  A    between atoms: _47  and  _48
REMARK   18  A    between atoms: _47  and  _50
REMARK   19  A    between atoms: _50  and  _51
REMARK   20  A    between atoms: _53  and  _55
REMARK   21  A    between atoms: _55  and  _56
REMARK   22  A    between atoms: _55  and  _58
REMARK   23  A    between atoms: _61  and  _63
REMARK   24  A    between atoms: _63  and  _64
REMARK   25  A    between atoms: _66  and  _68
REMARK   26  A    between atoms: _68  and  _69
REMARK   27  A    between atoms: _68  and  _71
REMARK   28  A    between atoms: _71  and  _72
REMARK   29  A    between atoms: _82  and  _84
REMARK   30  A    between atoms: _84  and  _85
REMARK   31  A    between atoms: _84  and  _87
REMARK   32  A    between atoms: _87  and  _88
REMARK   33  A    between atoms: _91  and  _93
REMARK   34  A    between atoms: _93  and  _94
REMARK   35  A    between atoms: _93  and  _96
REMARK   36  A    between atoms: _96  and  _97
REMARK   37  A    between atoms: _100  and  _102
REMARK   38  A    between atoms: _102  and  _103
REMARK   39  A    between atoms: _102  and  _105
REMARK   40  A    between atoms: _105  and  _106
REMARK   41  A    between atoms: _106  and  _107
REMARK   42  A    between atoms: _110  and  _112
REMARK   43  A    between atoms: _112  and  _113
REMARK   44  A    between atoms: _112  and  _115
REMARK   45  A    between atoms: _115  and  _116
REMARK   46  A    between atoms: _122  and  _124
REMARK   47  A    between atoms: _124  and  _125
REMARK   48  A    between atoms: _127  and  _129
REMARK   49  A    between atoms: _129  and  _130
REMARK   50  A    between atoms: _132  and  _134
REMARK   51  A    between atoms: _134  and  _135
REMARK   52  A    between atoms: _138  and  _140
REMARK   53  A    between atoms: _140  and  _141
REMARK   54  A    between atoms: _140  and  _143
REMARK   55  A    between atoms: _143  and  _144
REMARK   56  A    between atoms: _144  and  _145
REMARK   57  A    between atoms: _145  and  _146
REMARK   58  A    between atoms: _146  and  _147
REMARK   59  A    between atoms: _151  and  _153
REMARK   60  A    between atoms: _153  and  _154
REMARK   61  A    between atoms: _153  and  _156
REMARK   62  A    between atoms: _156  and  _157
REMARK   63  A    between atoms: _157  and  _158
REMARK   64  A    between atoms: _160  and  _162
REMARK   65  A    between atoms: _162  and  _163
REMARK   66  A    between atoms: _162  and  _165
REMARK   67  A    between atoms: _165  and  _166
REMARK   68  A    between atoms: _171  and  _172
REMARK   69  A    between atoms: _174  and  _176
REMARK   70  A    between atoms: _176  and  _177
REMARK   71  A    between atoms: _176  and  _179
REMARK   72  A    between atoms: _179  and  _180
REMARK   73  A    between atoms: _183  and  _185
REMARK   74  A    between atoms: _185  and  _186
REMARK   75  A    between atoms: _185  and  _188
REMARK   76  A    between atoms: _188  and  _189
REMARK   77  A    between atoms: _195  and  _197
REMARK   78  A    between atoms: _197  and  _198
REMARK   79  A    between atoms: _197  and  _200
REMARK   80  A    between atoms: _200  and  _201
REMARK   81  A    between atoms: _206  and  _207
REMARK   82  A    between atoms: _209  and  _211
REMARK   83  A    between atoms: _211  and  _212
REMARK   84  A    between atoms: _214  and  _216
REMARK   85  A    between atoms: _216  and  _217
REMARK   86  A    between atoms: _219  and  _221
REMARK   87  A    between atoms: _221  and  _222
REMARK   88  A    between atoms: _221  and  _224
REMARK   89  A    between atoms: _224  and  _225
REMARK   90  A    between atoms: _235  and  _237
REMARK   91  A    between atoms: _237  and  _238
REMARK   92  A    between atoms: _237  and  _240
REMARK   93  A    between atoms: _240  and  _241
REMARK   94  A    between atoms: _246  and  _248
REMARK   95  A    between atoms: _248  and  _249
REMARK   96  A    between atoms: _248  and  _251
REMARK   97  A    between atoms: _251  and  _252
REMARK   98  A    between atoms: _257  and  _258
REMARK   99  A    between atoms: _260  and  _262
REMARK  100  A    between atoms: _262  and  _263
REMARK  101  A    between atoms: _262  and  _265
REMARK  102  A    between atoms: _265  and  _266
REMARK  103  A    between atoms: _271  and  _272
REMARK  104  A    between atoms: _274  and  _276
REMARK  105  A    between atoms: _276  and  _277
REMARK  106  A    between atoms: _276  and  _279
REMARK  107  A    between atoms: _279  and  _280
REMARK  108  A    between atoms: _280  and  _281
REMARK  109  A    between atoms: _281  and  _282
REMARK  110  A    between atoms: _291  and  _293
REMARK  111  A    between atoms: _293  and  _294
REMARK  112  A    between atoms: _293  and  _296
REMARK  113  A    between atoms: _296  and  _297
REMARK  114  A    between atoms: _297  and  _298
REMARK  115  A    between atoms: _298  and  _299
REMARK  116  A    between atoms: _299  and  _300
REMARK  117  A    between atoms: _304  and  _306
REMARK  118  A    between atoms: _306  and  _307
REMARK  119  A    between atoms: _306  and  _309
REMARK  120  A    between atoms: _309  and  _310
REMARK  121  A    between atoms: _310  and  _311
REMARK  122  A    between atoms: _314  and  _316
REMARK  123  A    between atoms: _316  and  _317
REMARK  124  A    between atoms: _316  and  _319
REMARK  125  A    between atoms: _322  and  _324
REMARK  126  A    between atoms: _324  and  _325
REMARK  127  A    between atoms: _324  and  _327
REMARK  128  A    between atoms: _327  and  _328
REMARK  129  A    between atoms: _338  and  _340
REMARK  130  A    between atoms: _340  and  _341
REMARK  131  A    between atoms: _340  and  _343
REMARK  132  A    between atoms: _343  and  _344
REMARK  133  A    between atoms: _344  and  _345
REMARK                            x       y       z     vdW  Elec       q    Type
REMARK                         _______ _______ _______ _____ _____    ______ ____
ROOT
ATOM      1  CG  LYS A   1      15.987 -18.557  16.145  0.00  0.00    -0.000 C 
ENDROOT
BRANCH   1   2
ATOM      2  CB  LYS A   1      15.021 -19.606  15.525  0.00  0.00    +0.025 C 
BRANCH   2   3
ATOM      3  CA  LYS A   1      15.738 -20.987  15.210  0.00  0.00    +0.133 C 
BRANCH   3   4
ATOM      4  N   LYS A   1      16.872 -20.814  14.362  0.00  0.00    -0.239 NA
ATOM      5  H   LYS A   1      16.888 -20.012  13.700  0.00  0.00    +0.142 HD
ENDBRANCH   3   4
BRANCH   3   6
ATOM      6  C   LYS A   1      14.741 -21.915  14.514  0.00  0.00    +0.224 C 
ATOM      7  O   LYS A   1      14.250 -22.903  15.144  0.00  0.00    -0.287 OA
ENDBRANCH   3   6
ENDBRANCH   2   3
ENDBRANCH   1   2
BRANCH   1   8
ATOM      8  CD  LYS A   1      16.622 -19.103  17.344  0.00  0.00    -0.024 C 
BRANCH   8   9
ATOM      9  CE  LYS A   1      17.547 -17.926  18.073  0.00  0.00    -0.086 C 
BRANCH   9  10
ATOM     10  NZ  LYS A   1      18.677 -17.354  17.273  0.00  0.00    +0.380 N 
ATOM     11  HZ1 LYS A   1      19.171 -16.635  17.839  0.00  0.00    -0.089 HD
ATOM     12  HZ2 LYS A   1      19.340 -18.114  17.020  0.00  0.00    -0.089 HD
ATOM     13  HZ3 LYS A   1      18.301 -16.918  16.407  0.00  0.00    -0.089 HD
ENDBRANCH   9  10
ENDBRANCH   8   9
ENDBRANCH   1   8
TORSDOF 7
REMARK  Name = ../refined-set-2016/3ary/3ary_pocket.pdb
REMARK  133 active torsions:
REMARK  status: ('A' for Active; 'I' for Inactive)
REMARK    1  A    between atoms: _1  and  _3
REMARK    2  A    between atoms: _3  and  _4
REMARK    3  A    between atoms: _3  and  _6
REMARK    4  A    between atoms: _6  and  _7
REMARK    5  A    between atoms: _17  and  _19
REMARK    6  A    between atoms: _19  and  _20
REMARK    7  A    between atoms: _19  and  _22
REMARK    8  A    between atoms: _22  and  _23
REMARK    9  A    between atoms: _29  and  _31
REMARK   10  A    between atoms: _31  and  _32
REMARK   11  A    between atoms: _31  and  _34
REMARK   12  A    between atoms: _34  and  _35
REMARK   13  A    between atoms: _37  and  _39
REMARK   14  A    between atoms: _39  and  _40
REMARK   15  A    between atoms: _39  and  _42
REMARK   16  A    between atoms: _45  and  _47
REMARK   17  A    between atoms: _47  and  _48
REMARK   18  A    between atoms: _47  and  _50
REMARK   19  A    between atoms: _50  and  _51
REMARK   20  A    between atoms: _53  and  _55
REMARK   21  A    between atoms: _55  and  _56
REMARK   22  A    between atoms: _55  and  _58
REMARK   23  A    between atoms: _61  and  _63
REMARK   24  A    between atoms: _63  and  _64
REMARK   25  A    between atoms: _66  and  _68
REMARK   26  A    between atoms: _68  and  _69
REMARK   27  A    between atoms: _68  and  _71
REMARK   28  A    between atoms: _71  and  _72
REMARK   29  A    between atoms: _82  and  _84
REMARK   30  A    between atoms: _84  and  _85
REMARK   31  A    between atoms: _84  and  _87
REMARK   32  A    between atoms: _87  and  _88
REMARK   33  A    between atoms: _91  and  _93
REMARK   34  A    between atoms: _93  and  _94
REMARK   35  A    between atoms: _93  and  _96
REMARK   36  A    between atoms: _96  and  _97
REMARK   37  A    between atoms: _100  and  _102
REMARK   38  A    between atoms: _102  and  _103
REMARK   39  A    between atoms: _102  and  _105
REMARK   40  A    between atoms: _105  and  _106
REMARK   41  A    between atoms: _106  and  _107
REMARK   42  A    between atoms: _110  and  _112
REMARK   43  A    between atoms: _112  and  _113
REMARK   44  A    between atoms: _112  and  _115
REMARK   45  A    between atoms: _115  and  _116
REMARK   46  A    between atoms: _122  and  _124
REMARK   47  A    between atoms: _124  and  _125
REMARK   48  A    between atoms: _127  and  _129
REMARK   49  A    between atoms: _129  and  _130
REMARK   50  A    between atoms: _132  and  _134
REMARK   51  A    between atoms: _134  and  _135
REMARK   52  A    between atoms: _138  and  _140
REMARK   53  A    between atoms: _140  and  _141
REMARK   54  A    between atoms: _140  and  _143
REMARK   55  A    between atoms: _143  and  _144
REMARK   56  A    between atoms: _144  and  _145
REMARK   57  A    between atoms: _145  and  _146
REMARK   58  A    between atoms: _146  and  _147
REMARK   59  A    between atoms: _151  and  _153
REMARK   60  A    between atoms: _153  and  _154
REMARK   61  A    between atoms: _153  and  _156
REMARK   62  A    between atoms: _156  and  _157
REMARK   63  A    between atoms: _157  and  _158
REMARK   64  A    between atoms: _160  and  _162
REMARK   65  A    between atoms: _162  and  _163
REMARK   66  A    between atoms: _162  and  _165
REMARK   67  A    between atoms: _165  and  _166
REMARK   68  A    between atoms: _171  and  _172
REMARK   69  A    between atoms: _174  and  _176
REMARK   70  A    between atoms: _176  and  _177
REMARK   71  A    between atoms: _176  and  _179
REMARK   72  A    between atoms: _179  and  _180
REMARK   73  A    between atoms: _183  and  _185
REMARK   74  A    between atoms: _185  and  _186
REMARK   75  A    between atoms: _185  and  _188
REMARK   76  A    between atoms: _188  and  _189
REMARK   77  A    between atoms: _195  and  _197
REMARK   78  A    between atoms: _197  and  _198
REMARK   79  A    between atoms: _197  and  _200
REMARK   80  A    between atoms: _200  and  _201
REMARK   81  A    between atoms: _206  and  _207
REMARK   82  A    between atoms: _209  and  _211
REMARK   83  A    between atoms: _211  and  _212
REMARK   84  A    between atoms: _214  and  _216
REMARK   85  A    between atoms: _216  and  _217
REMARK   86  A    between atoms: _219  and  _221
REMARK   87  A    between atoms: _221  and  _222
REMARK   88  A    between atoms: _221  and  _224
REMARK   89  A    between atoms: _224  and  _225
REMARK   90  A    between atoms: _235  and  _237
REMARK   91  A    between atoms: _237  and  _238
REMARK   92  A    between atoms: _237  and  _240
REMARK   93  A    between atoms: _240  and  _241
REMARK   94  A    between atoms: _246  and  _248
REMARK   95  A    between atoms: _248  and  _249
REMARK   96  A    between atoms: _248  and  _251
REMARK   97  A    between atoms: _251  and  _252
REMARK   98  A    between atoms: _257  and  _258
REMARK   99  A    between atoms: _260  and  _262
REMARK  100  A    between atoms: _262  and  _263
REMARK  101  A    between atoms: _262  and  _265
REMARK  102  A    between atoms: _265  and  _266
REMARK  103  A    between atoms: _271  and  _272
REMARK  104  A    between atoms: _274  and  _276
REMARK  105  A    between atoms: _276  and  _277
REMARK  106  A    between atoms: _276  and  _279
REMARK  107  A    between atoms: _279  and  _280
REMARK  108  A    between atoms: _280  and  _281
REMARK  109  A    between atoms: _281  and  _282
REMARK  110  A    between atoms: _291  and  _293
REMARK  111  A    between atoms: _293  and  _294
REMARK  112  A    between atoms: _293  and  _296
REMARK  113  A    between atoms: _296  and  _297
REMARK  114  A    between atoms: _297  and  _298
REMARK  115  A    between atoms: _298  and  _299
REMARK  116  A    between atoms: _299  and  _300
REMARK  117  A    between atoms: _304  and  _306
REMARK  118  A    between atoms: _306  and  _307
REMARK  119  A    between atoms: _306  and  _309
REMARK  120  A    between atoms: _309  and  _310
REMARK  121  A    between atoms: _310  and  _311
REMARK  122  A    between atoms: _314  and  _316
REMARK  123  A    between atoms: _316  and  _317
REMARK  124  A    between atoms: _316  and  _319
REMARK  125  A    between atoms: _322  and  _324
REMARK  126  A    between atoms: _324  and  _325
REMARK  127  A    between atoms: _324  and  _327
REMARK  128  A    between atoms: _327  and  _328
REMARK  129  A    between atoms: _338  and  _340
REMARK  130  A    between atoms: _340  and  _341
REMARK  131  A    between atoms: _340  and  _343
REMARK  132  A    between atoms: _343  and  _344
REMARK  133  A    between atoms: _344  and  _345
REMARK                            x       y       z     vdW  Elec       q    Type
REMARK                         _______ _______ _______ _____ _____    ______ ____
ROOT
ATOM      1  CA  MET A   1       9.086 -12.464  14.463  0.00  0.00    +0.134 C 
ENDROOT
BRANCH   1   2
ATOM      2  N   MET A   1       8.363 -13.653  13.842  0.00  0.00    -0.239 NA
ATOM      3  H   MET A   1       8.602 -14.612  14.167  0.00  0.00    +0.142 HD
ENDBRANCH   1   2
BRANCH   1   4
ATOM      4  C   MET A   1      10.088 -11.882  13.462  0.00  0.00    +0.224 C 
ATOM      5  O   MET A   1      11.295 -12.056  13.675  0.00  0.00    -0.287 OA
ENDBRANCH   1   4
BRANCH   1   6
ATOM      6  CB  MET A   1       9.812 -12.911  15.745  0.00  0.00    +0.037 C 
BRANCH   6   7
ATOM      7  CG  MET A   1       8.817 -13.152  16.860  0.00  0.00    +0.059 C 
BRANCH   7   8
ATOM      8  SD  MET A   1       9.482 -14.159  18.243  0.00  0.00    -0.139 S 
ATOM      9  CE  MET A   1      10.917 -13.281  18.694  0.00  0.00    +0.069 C 
ENDBRANCH   7   8
ENDBRANCH   6   7
ENDBRANCH   1   6
TORSDOF 5
REMARK  Name = ../refined-set-2016/3ary/3ary_pocket.pdb
REMARK  133 active torsions:
REMARK  status: ('A' for Active; 'I' for Inactive)
REMARK    1  A    between atoms: _1  and  _3
REMARK    2  A    between atoms: _3  and  _4
REMARK    3  A    between atoms: _3  and  _6
REMARK    4  A    between atoms: _6  and  _7
REMARK    5  A    between atoms: _17  and  _19
REMARK    6  A    between atoms: _19  and  _20
REMARK    7  A    between atoms: _19  and  _22
REMARK    8  A    between atoms: _22  and  _23
REMARK    9  A    between atoms: _29  and  _31
REMARK   10  A    between atoms: _31  and  _32
REMARK   11  A    between atoms: _31  and  _34
REMARK   12  A    between atoms: _34  and  _35
REMARK   13  A    between atoms: _37  and  _39
REMARK   14  A    between atoms: _39  and  _40
REMARK   15  A    between atoms: _39  and  _42
REMARK   16  A    between atoms: _45  and  _47
REMARK   17  A    between atoms: _47  and  _48
REMARK   18  A    between atoms: _47  and  _50
REMARK   19  A    between atoms: _50  and  _51
REMARK   20  A    between atoms: _53  and  _55
REMARK   21  A    between atoms: _55  and  _56
REMARK   22  A    between atoms: _55  and  _58
REMARK   23  A    between atoms: _61  and  _63
REMARK   24  A    between atoms: _63  and  _64
REMARK   25  A    between atoms: _66  and  _68
REMARK   26  A    between atoms: _68  and  _69
REMARK   27  A    between atoms: _68  and  _71
REMARK   28  A    between atoms: _71  and  _72
REMARK   29  A    between atoms: _82  and  _84
REMARK   30  A    between atoms: _84  and  _85
REMARK   31  A    between atoms: _84  and  _87
REMARK   32  A    between atoms: _87  and  _88
REMARK   33  A    between atoms: _91  and  _93
REMARK   34  A    between atoms: _93  and  _94
REMARK   35  A    between atoms: _93  and  _96
REMARK   36  A    between atoms: _96  and  _97
REMARK   37  A    between atoms: _100  and  _102
REMARK   38  A    between atoms: _102  and  _103
REMARK   39  A    between atoms: _102  and  _105
REMARK   40  A    between atoms: _105  and  _106
REMARK   41  A    between atoms: _106  and  _107
REMARK   42  A    between atoms: _110  and  _112
REMARK   43  A    between atoms: _112  and  _113
REMARK   44  A    between atoms: _112  and  _115
REMARK   45  A    between atoms: _115  and  _116
REMARK   46  A    between atoms: _122  and  _124
REMARK   47  A    between atoms: _124  and  _125
REMARK   48  A    between atoms: _127  and  _129
REMARK   49  A    between atoms: _129  and  _130
REMARK   50  A    between atoms: _132  and  _134
REMARK   51  A    between atoms: _134  and  _135
REMARK   52  A    between atoms: _138  and  _140
REMARK   53  A    between atoms: _140  and  _141
REMARK   54  A    between atoms: _140  and  _143
REMARK   55  A    between atoms: _143  and  _144
REMARK   56  A    between atoms: _144  and  _145
REMARK   57  A    between atoms: _145  and  _146
REMARK   58  A    between atoms: _146  and  _147
REMARK   59  A    between atoms: _151  and  _153
REMARK   60  A    between atoms: _153  and  _154
REMARK   61  A    between atoms: _153  and  _156
REMARK   62  A    between atoms: _156  and  _157
REMARK   63  A    between atoms: _157  and  _158
REMARK   64  A    between atoms: _160  and  _162
REMARK   65  A    between atoms: _162  and  _163
REMARK   66  A    between atoms: _162  and  _165
REMARK   67  A    between atoms: _165  and  _166
REMARK   68  A    between atoms: _171  and  _172
REMARK   69  A    between atoms: _174  and  _176
REMARK   70  A    between atoms: _176  and  _177
REMARK   71  A    between atoms: _176  and  _179
REMARK   72  A    between atoms: _179  and  _180
REMARK   73  A    between atoms: _183  and  _185
REMARK   74  A    between atoms: _185  and  _186
REMARK   75  A    between atoms: _185  and  _188
REMARK   76  A    between atoms: _188  and  _189
REMARK   77  A    between atoms: _195  and  _197
REMARK   78  A    between atoms: _197  and  _198
REMARK   79  A    between atoms: _197  and  _200
REMARK   80  A    between atoms: _200  and  _201
REMARK   81  A    between atoms: _206  and  _207
REMARK   82  A    between atoms: _209  and  _211
REMARK   83  A    between atoms: _211  and  _212
REMARK   84  A    between atoms: _214  and  _216
REMARK   85  A    between atoms: _216  and  _217
REMARK   86  A    between atoms: _219  and  _221
REMARK   87  A    between atoms: _221  and  _222
REMARK   88  A    between atoms: _221  and  _224
REMARK   89  A    between atoms: _224  and  _225
REMARK   90  A    between atoms: _235  and  _237
REMARK   91  A    between atoms: _237  and  _238
REMARK   92  A    between atoms: _237  and  _240
REMARK   93  A    between atoms: _240  and  _241
REMARK   94  A    between atoms: _246  and  _248
REMARK   95  A    between atoms: _248  and  _249
REMARK   96  A    between atoms: _248  and  _251
REMARK   97  A    between atoms: _251  and  _252
REMARK   98  A    between atoms: _257  and  _258
REMARK   99  A    between atoms: _260  and  _262
REMARK  100  A    between atoms: _262  and  _263
REMARK  101  A    between atoms: _262  and  _265
REMARK  102  A    between atoms: _265  and  _266
REMARK  103  A    between atoms: _271  and  _272
REMARK  104  A    between atoms: _274  and  _276
REMARK  105  A    between atoms: _276  and  _277
REMARK  106  A    between atoms: _276  and  _279
REMARK  107  A    between atoms: _279  and  _280
REMARK  108  A    between atoms: _280  and  _281
REMARK  109  A    between atoms: _281  and  _282
REMARK  110  A    between atoms: _291  and  _293
REMARK  111  A    between atoms: _293  and  _294
REMARK  112  A    between atoms: _293  and  _296
REMARK  113  A    between atoms: _296  and  _297
REMARK  114  A    between atoms: _297  and  _298
REMARK  115  A    between atoms: _298  and  _299
REMARK  116  A    between atoms: _299  and  _300
REMARK  117  A    between atoms: _304  and  _306
REMARK  118  A    between atoms: _306  and  _307
REMARK  119  A    between atoms: _306  and  _309
REMARK  120  A    between atoms: _309  and  _310
REMARK  121  A    between atoms: _310  and  _311
REMARK  122  A    between atoms: _314  and  _316
REMARK  123  A    between atoms: _316  and  _317
REMARK  124  A    between atoms: _316  and  _319
REMARK  125  A    between atoms: _322  and  _324
REMARK  126  A    between atoms: _324  and  _325
REMARK  127  A    between atoms: _324  and  _327
REMARK  128  A    between atoms: _327  and  _328
REMARK  129  A    between atoms: _338  and  _340
REMARK  130  A    between atoms: _340  and  _341
REMARK  131  A    between atoms: _340  and  _343
REMARK  132  A    between atoms: _343  and  _344
REMARK  133  A    between atoms: _344  and  _345
REMARK                            x       y       z     vdW  Elec       q    Type
REMARK                         _______ _______ _______ _____ _____    ______ ____
ROOT
ATOM      1  CA  TYR A   4      20.409  -6.680  14.039  0.00  0.00    +0.153 C 
ENDROOT
BRANCH   1   2
ATOM      2  C   TYR A   4      20.035  -5.800  15.146  0.00  0.00    +0.241 C 
ATOM      3  N   GLY A   5      21.024  -5.371  15.960  0.00  0.00    -0.295 N 
ATOM      4  H   GLY A   5      22.015  -5.635  15.786  0.00  0.00    +0.150 HD
ATOM      5  O   TYR A   4      18.860  -5.398  15.328  0.00  0.00    -0.273 OA
BRANCH   3   6
ATOM      6  CA  GLY A   5      20.652  -4.510  17.112  0.00  0.00    +0.176 C 
BRANCH   6   7
ATOM      7  C   GLY A   5      21.834  -4.112  17.949  0.00  0.00    +0.243 C 
ATOM      8  N   GLY A   6      21.512  -3.390  19.013  0.00  0.00    -0.295 N 
ATOM      9  H   GLY A   6      20.515  -3.242  19.271  0.00  0.00    +0.150 HD
ATOM     10  O   GLY A   5      22.962  -4.516  17.664  0.00  0.00    -0.273 OA
BRANCH   8  11
ATOM     11  CA  GLY A   6      22.627  -2.782  19.849  0.00  0.00    +0.176 C 
BRANCH  11  12
ATOM     12  C   GLY A   6      23.305  -3.768  20.746  0.00  0.00    +0.243 C 
ATOM     13  O   GLY A   6      24.240  -3.402  21.444  0.00  0.00    -0.273 OA
ATOM     14  N   TRP A   7      22.917  -5.033  20.745  0.00  0.00    -0.297 N 
ATOM     15  H   TRP A   7      22.099  -5.333  20.176  0.00  0.00    +0.150 HD
BRANCH  14  16
ATOM     16  CA  TRP A   7      23.659  -6.013  21.561  0.00  0.00    +0.153 C 
BRANCH  16  17
ATOM     17  C   TRP A   7      25.063  -6.203  21.037  0.00  0.00    +0.241 C 
ATOM     18  O   TRP A   7      25.905  -6.752  21.800  0.00  0.00    -0.273 OA
ATOM     19  N   ASN A   8      25.345  -5.832  19.803  0.00  0.00    -0.298 N 
ATOM     20  H   ASN A   8      24.571  -5.592  19.151  0.00  0.00    +0.150 HD
BRANCH  19  21
ATOM     21  CA  ASN A   8      26.722  -5.753  19.341  0.00  0.00    +0.146 C 
BRANCH  21  22
ATOM     22  C   ASN A   8      26.928  -4.494  18.497  0.00  0.00    +0.227 C 
ATOM     23  O   ASN A   8      26.003  -3.650  18.496  0.00  0.00    -0.286 OA
ENDBRANCH  21  22
BRANCH  21  24
ATOM     24  CB  ASN A   8      27.095  -7.081  18.634  0.00  0.00    +0.112 C 
BRANCH  24  25
ATOM     25  CG  ASN A   8      26.309  -7.283  17.327  0.00  0.00    +0.222 C 
ATOM     26  ND2 ASN A   8      25.991  -8.496  17.003  0.00  0.00    -0.329 N 
ATOM     27 HD21 ASN A   8      26.310  -9.292  17.592  0.00  0.00    +0.145 HD
ATOM     28 HD22 ASN A   8      25.417  -8.674  16.154  0.00  0.00    +0.145 HD
ATOM     29  OD1 ASN A   8      25.952  -6.335  16.660  0.00  0.00    -0.275 OA
ENDBRANCH  24  25
ENDBRANCH  21  24
ENDBRANCH  19  21
ENDBRANCH  16  17
BRANCH  16  30
ATOM     30  CB  TRP A   7      22.880  -7.340  21.565  0.00  0.00    +0.057 C 
BRANCH  30  31
ATOM     31  CG  TRP A   7      22.471  -7.798  20.183  0.00  0.00    -0.002 A 
ATOM     32  CD2 TRP A   7      21.164  -7.635  19.606  0.00  0.00    +0.013 A 
ATOM     33  CE3 TRP A   7      20.005  -7.033  20.048  0.00  0.00    +0.001 A 
ATOM     34  CZ3 TRP A   7      18.896  -7.082  19.211  0.00  0.00    +0.000 A 
ATOM     35  CH2 TRP A   7      18.945  -7.681  17.973  0.00  0.00    +0.001 A 
ATOM     36  CZ2 TRP A   7      20.048  -8.317  17.510  0.00  0.00    +0.017 A 
ATOM     37  CE2 TRP A   7      21.179  -8.241  18.344  0.00  0.00    +0.056 A 
ATOM     38  NE1 TRP A   7      22.430  -8.772  18.183  0.00  0.00    -0.352 N 
ATOM     39  HE1 TRP A   7      22.762  -9.282  17.340  0.00  0.00    +0.166 HD
ATOM     40  CD1 TRP A   7      23.188  -8.524  19.320  0.00  0.00    +0.068 A 
ENDBRANCH  30  31
ENDBRANCH  16  30
ENDBRANCH  14  16
ENDBRANCH  11  12
ENDBRANCH   8  11
ENDBRANCH   6   7
ENDBRANCH   3   6
ENDBRANCH   1   2
BRANCH   1  42
ATOM     41  C   PHE A   3      19.043  -8.780  13.422  0.00  0.00    +0.241 C 
ATOM     42  N   TYR A   4      19.164  -7.439  13.661  0.00  0.00    -0.297 N 
ATOM     43  H   TYR A   4      18.294  -6.877  13.571  0.00  0.00    +0.150 HD
ATOM     44  O   PHE A   3      20.023  -9.489  13.269  0.00  0.00    -0.273 OA
BRANCH  41  45
ATOM     45  CA  PHE A   3      17.663  -9.259  13.037  0.00  0.00    +0.153 C 
BRANCH  45  48
ATOM     46  C   ASP A   2      16.431  -8.715  15.062  0.00  0.00    +0.241 C 
ATOM     47  O   ASP A   2      17.175  -9.456  15.722  0.00  0.00    -0.273 OA
ATOM     48  N   PHE A   3      16.623  -8.466  13.768  0.00  0.00    -0.297 N 
ATOM     49  H   PHE A   3      16.065  -7.739  13.277  0.00  0.00    +0.150 HD
BRANCH  46  50
ATOM     50  CA  ASP A   2      15.367  -7.884  15.804  0.00  0.00    +0.160 C 
BRANCH  50  52
ATOM     51  C   TYR A   1      13.467  -8.546  14.376  0.00  0.00    +0.239 C 
ATOM     52  N   ASP A   2      14.222  -7.596  14.911  0.00  0.00    -0.297 N 
ATOM     53  H   ASP A   2      14.000  -6.604  14.693  0.00  0.00    +0.150 HD
ATOM     54  O   TYR A   1      13.643  -9.763  14.588  0.00  0.00    -0.274 OA
BRANCH  51  55
ATOM     55  CA  TYR A   1      12.382  -8.061  13.393  0.00  0.00    +0.149 C 
BRANCH  55  56
ATOM     56  N   TYR A   1      11.766  -9.322  12.861  0.00  0.00    -0.238 NA
ATOM     57  H   TYR A   1      11.929 -10.215  13.368  0.00  0.00    +0.142 HD
ENDBRANCH  55  56
BRANCH  55  58
ATOM     58  CB  TYR A   1      11.303  -7.187  14.126  0.00  0.00    +0.053 C 
BRANCH  58  59
ATOM     59  CG  TYR A   1      10.233  -7.892  14.931  0.00  0.00    -0.020 A 
ATOM     60  CD2 TYR A   1      10.521  -8.543  16.116  0.00  0.00    -0.001 A 
ATOM     61  CE2 TYR A   1       9.551  -9.148  16.902  0.00  0.00    +0.036 A 
ATOM     62  CZ  TYR A   1       8.275  -9.075  16.503  0.00  0.00    +0.134 A 
ATOM     63  CE1 TYR A   1       7.886  -8.420  15.330  0.00  0.00    +0.036 A 
ATOM     64  CD1 TYR A   1       8.887  -7.789  14.550  0.00  0.00    -0.001 A 
BRANCH  62  65
ATOM     65  OH  TYR A   1       7.246  -9.597  17.301  0.00  0.00    -0.506 OA
ATOM     66  HH  TYR A   1       7.638 -10.035  18.098  0.00  0.00    +0.292 HD
ENDBRANCH  62  65
ENDBRANCH  58  59
ENDBRANCH  55  58
ENDBRANCH  51  55
ENDBRANCH  50  52
BRANCH  50  67
ATOM     67  CB  ASP A   2      14.961  -8.620  17.094  0.00  0.00    +0.143 C 
BRANCH  67  68
ATOM     68  CG  ASP A   2      14.044  -7.811  17.936  0.00  0.00    +0.367 C 
ATOM     69  OD2 ASP A   2      13.154  -8.464  18.654  0.00  0.00    -0.246 OA
ATOM     70  OD1 ASP A   2      13.924  -6.547  17.800  0.00  0.00    -0.246 OA
ENDBRANCH  67  68
ENDBRANCH  50  67
ENDBRANCH  46  50
ENDBRANCH  45  48
BRANCH  45  71
ATOM     71  CB  PHE A   3      17.476  -9.092  11.525  0.00  0.00    +0.055 C 
BRANCH  71  72
ATOM     72  CG  PHE A   3      16.140  -9.642  11.013  0.00  0.00    -0.020 A 
ATOM     73  CD2 PHE A   3      15.543 -10.716  11.629  0.00  0.00    -0.004 A 
ATOM     74  CE2 PHE A   3      14.381 -11.258  11.073  0.00  0.00    -0.000 A 
ATOM     75  CZ  PHE A   3      13.782 -10.612   9.946  0.00  0.00    -0.000 A 
ATOM     76  CE1 PHE A   3      14.365  -9.545   9.342  0.00  0.00    -0.000 A 
ATOM     77  CD1 PHE A   3      15.582  -9.068   9.860  0.00  0.00    -0.004 A 
ENDBRANCH  71  72
ENDBRANCH  45  71
ENDBRANCH  41  45
ENDBRANCH   1  42
BRANCH   1  78
ATOM     78  CB  TYR A   4      20.892  -5.879  12.865  0.00  0.00    +0.055 C 
BRANCH  78  79
ATOM     79  CG  TYR A   4      21.545  -6.723  11.784  0.00  0.00    -0.020 A 
ATOM     80  CD2 TYR A   4      22.963  -6.858  11.755  0.00  0.00    -0.001 A 
ATOM     81  CE2 TYR A   4      23.539  -7.636  10.773  0.00  0.00    +0.036 A 
ATOM     82  CZ  TYR A   4      22.802  -8.354   9.886  0.00  0.00    +0.134 A 
ATOM     83  CE1 TYR A   4      21.438  -8.249   9.870  0.00  0.00    +0.036 A 
ATOM     84  CD1 TYR A   4      20.781  -7.383  10.813  0.00  0.00    -0.001 A 
BRANCH  82  85
ATOM     85  OH  TYR A   4      23.360  -9.192   8.876  0.00  0.00    -0.506 OA
ATOM     86  HH  TYR A   4      23.909  -9.898   9.301  0.00  0.00    +0.292 HD
ENDBRANCH  82  85
ENDBRANCH  78  79
ENDBRANCH   1  78
TORSDOF 30
REMARK  Name = ../refined-set-2016/3ary/3ary_pocket.pdb
REMARK  133 active torsions:
REMARK  status: ('A' for Active; 'I' for Inactive)
REMARK    1  A    between atoms: _1  and  _3
REMARK    2  A    between atoms: _3  and  _4
REMARK    3  A    between atoms: _3  and  _6
REMARK    4  A    between atoms: _6  and  _7
REMARK    5  A    between atoms: _17  and  _19
REMARK    6  A    between atoms: _19  and  _20
REMARK    7  A    between atoms: _19  and  _22
REMARK    8  A    between atoms: _22  and  _23
REMARK    9  A    between atoms: _29  and  _31
REMARK   10  A    between atoms: _31  and  _32
REMARK   11  A    between atoms: _31  and  _34
REMARK   12  A    between atoms: _34  and  _35
REMARK   13  A    between atoms: _37  and  _39
REMARK   14  A    between atoms: _39  and  _40
REMARK   15  A    between atoms: _39  and  _42
REMARK   16  A    between atoms: _45  and  _47
REMARK   17  A    between atoms: _47  and  _48
REMARK   18  A    between atoms: _47  and  _50
REMARK   19  A    between atoms: _50  and  _51
REMARK   20  A    between atoms: _53  and  _55
REMARK   21  A    between atoms: _55  and  _56
REMARK   22  A    between atoms: _55  and  _58
REMARK   23  A    between atoms: _61  and  _63
REMARK   24  A    between atoms: _63  and  _64
REMARK   25  A    between atoms: _66  and  _68
REMARK   26  A    between atoms: _68  and  _69
REMARK   27  A    between atoms: _68  and  _71
REMARK   28  A    between atoms: _71  and  _72
REMARK   29  A    between atoms: _82  and  _84
REMARK   30  A    between atoms: _84  and  _85
REMARK   31  A    between atoms: _84  and  _87
REMARK   32  A    between atoms: _87  and  _88
REMARK   33  A    between atoms: _91  and  _93
REMARK   34  A    between atoms: _93  and  _94
REMARK   35  A    between atoms: _93  and  _96
REMARK   36  A    between atoms: _96  and  _97
REMARK   37  A    between atoms: _100  and  _102
REMARK   38  A    between atoms: _102  and  _103
REMARK   39  A    between atoms: _102  and  _105
REMARK   40  A    between atoms: _105  and  _106
REMARK   41  A    between atoms: _106  and  _107
REMARK   42  A    between atoms: _110  and  _112
REMARK   43  A    between atoms: _112  and  _113
REMARK   44  A    between atoms: _112  and  _115
REMARK   45  A    between atoms: _115  and  _116
REMARK   46  A    between atoms: _122  and  _124
REMARK   47  A    between atoms: _124  and  _125
REMARK   48  A    between atoms: _127  and  _129
REMARK   49  A    between atoms: _129  and  _130
REMARK   50  A    between atoms: _132  and  _134
REMARK   51  A    between atoms: _134  and  _135
REMARK   52  A    between atoms: _138  and  _140
REMARK   53  A    between atoms: _140  and  _141
REMARK   54  A    between atoms: _140  and  _143
REMARK   55  A    between atoms: _143  and  _144
REMARK   56  A    between atoms: _144  and  _145
REMARK   57  A    between atoms: _145  and  _146
REMARK   58  A    between atoms: _146  and  _147
REMARK   59  A    between atoms: _151  and  _153
REMARK   60  A    between atoms: _153  and  _154
REMARK   61  A    between atoms: _153  and  _156
REMARK   62  A    between atoms: _156  and  _157
REMARK   63  A    between atoms: _157  and  _158
REMARK   64  A    between atoms: _160  and  _162
REMARK   65  A    between atoms: _162  and  _163
REMARK   66  A    between atoms: _162  and  _165
REMARK   67  A    between atoms: _165  and  _166
REMARK   68  A    between atoms: _171  and  _172
REMARK   69  A    between atoms: _174  and  _176
REMARK   70  A    between atoms: _176  and  _177
REMARK   71  A    between atoms: _176  and  _179
REMARK   72  A    between atoms: _179  and  _180
REMARK   73  A    between atoms: _183  and  _185
REMARK   74  A    between atoms: _185  and  _186
REMARK   75  A    between atoms: _185  and  _188
REMARK   76  A    between atoms: _188  and  _189
REMARK   77  A    between atoms: _195  and  _197
REMARK   78  A    between atoms: _197  and  _198
REMARK   79  A    between atoms: _197  and  _200
REMARK   80  A    between atoms: _200  and  _201
REMARK   81  A    between atoms: _206  and  _207
REMARK   82  A    between atoms: _209  and  _211
REMARK   83  A    between atoms: _211  and  _212
REMARK   84  A    between atoms: _214  and  _216
REMARK   85  A    between atoms: _216  and  _217
REMARK   86  A    between atoms: _219  and  _221
REMARK   87  A    between atoms: _221  and  _222
REMARK   88  A    between atoms: _221  and  _224
REMARK   89  A    between atoms: _224  and  _225
REMARK   90  A    between atoms: _235  and  _237
REMARK   91  A    between atoms: _237  and  _238
REMARK   92  A    between atoms: _237  and  _240
REMARK   93  A    between atoms: _240  and  _241
REMARK   94  A    between atoms: _246  and  _248
REMARK   95  A    between atoms: _248  and  _249
REMARK   96  A    between atoms: _248  and  _251
REMARK   97  A    between atoms: _251  and  _252
REMARK   98  A    between atoms: _257  and  _258
REMARK   99  A    between atoms: _260  and  _262
REMARK  100  A    between atoms: _262  and  _263
REMARK  101  A    between atoms: _262  and  _265
REMARK  102  A    between atoms: _265  and  _266
REMARK  103  A    between atoms: _271  and  _272
REMARK  104  A    between atoms: _274  and  _276
REMARK  105  A    between atoms: _276  and  _277
REMARK  106  A    between atoms: _276  and  _279
REMARK  107  A    between atoms: _279  and  _280
REMARK  108  A    between atoms: _280  and  _281
REMARK  109  A    between atoms: _281  and  _282
REMARK  110  A    between atoms: _291  and  _293
REMARK  111  A    between atoms: _293  and  _294
REMARK  112  A    between atoms: _293  and  _296
REMARK  113  A    between atoms: _296  and  _297
REMARK  114  A    between atoms: _297  and  _298
REMARK  115  A    between atoms: _298  and  _299
REMARK  116  A    between atoms: _299  and  _300
REMARK  117  A    between atoms: _304  and  _306
REMARK  118  A    between atoms: _306  and  _307
REMARK  119  A    between atoms: _306  and  _309
REMARK  120  A    between atoms: _309  and  _310
REMARK  121  A    between atoms: _310  and  _311
REMARK  122  A    between atoms: _314  and  _316
REMARK  123  A    between atoms: _316  and  _317
REMARK  124  A    between atoms: _316  and  _319
REMARK  125  A    between atoms: _322  and  _324
REMARK  126  A    between atoms: _324  and  _325
REMARK  127  A    between atoms: _324  and  _327
REMARK  128  A    between atoms: _327  and  _328
REMARK  129  A    between atoms: _338  and  _340
REMARK  130  A    between atoms: _340  and  _341
REMARK  131  A    between atoms: _340  and  _343
REMARK  132  A    between atoms: _343  and  _344
REMARK  133  A    between atoms: _344  and  _345
REMARK                            x       y       z     vdW  Elec       q    Type
REMARK                         _______ _______ _______ _____ _____    ______ ____
ROOT
ATOM      1  CG  TYR A   1      19.275 -13.385  11.356  0.00  0.00    -0.020 A 
ATOM      2  CD2 TYR A   1      19.253 -13.012  12.702  0.00  0.00    -0.001 A 
ATOM      3  CE2 TYR A   1      19.449 -14.010  13.750  0.00  0.00    +0.036 A 
ATOM      4  CZ  TYR A   1      19.663 -15.318  13.375  0.00  0.00    +0.134 A 
ATOM      5  CE1 TYR A   1      19.725 -15.700  12.003  0.00  0.00    +0.036 A 
ATOM      6  CD1 TYR A   1      19.478 -14.742  11.061  0.00  0.00    -0.001 A 
ENDROOT
BRANCH   4   7
ATOM      7  OH  TYR A   1      19.912 -16.277  14.394  0.00  0.00    -0.506 OA
ATOM      8  HH  TYR A   1      20.046 -17.167  13.982  0.00  0.00    +0.292 HD
ENDBRANCH   4   7
BRANCH   1   9
ATOM      9  CB  TYR A   1      18.920 -12.342  10.327  0.00  0.00    +0.051 C 
BRANCH   9  10
ATOM     10  CA  TYR A   1      18.614 -12.823   8.923  0.00  0.00    +0.137 C 
BRANCH  10  11
ATOM     11  N   TYR A   1      19.867 -13.147   8.237  0.00  0.00    -0.239 NA
ATOM     12  H   TYR A   1      20.764 -12.750   8.583  0.00  0.00    +0.142 HD
ENDBRANCH  10  11
BRANCH  10  13
ATOM     13  C   TYR A   1      17.829 -11.814   8.136  0.00  0.00    +0.224 C 
ATOM     14  O   TYR A   1      18.121 -10.592   8.252  0.00  0.00    -0.287 OA
ENDBRANCH  10  13
ENDBRANCH   9  10
ENDBRANCH   1   9
TORSDOF 5
REMARK  Name = ../refined-set-2016/3ary/3ary_pocket.pdb
REMARK  133 active torsions:
REMARK  status: ('A' for Active; 'I' for Inactive)
REMARK    1  A    between atoms: _1  and  _3
REMARK    2  A    between atoms: _3  and  _4
REMARK    3  A    between atoms: _3  and  _6
REMARK    4  A    between atoms: _6  and  _7
REMARK    5  A    between atoms: _17  and  _19
REMARK    6  A    between atoms: _19  and  _20
REMARK    7  A    between atoms: _19  and  _22
REMARK    8  A    between atoms: _22  and  _23
REMARK    9  A    between atoms: _29  and  _31
REMARK   10  A    between atoms: _31  and  _32
REMARK   11  A    between atoms: _31  and  _34
REMARK   12  A    between atoms: _34  and  _35
REMARK   13  A    between atoms: _37  and  _39
REMARK   14  A    between atoms: _39  and  _40
REMARK   15  A    between atoms: _39  and  _42
REMARK   16  A    between atoms: _45  and  _47
REMARK   17  A    between atoms: _47  and  _48
REMARK   18  A    between atoms: _47  and  _50
REMARK   19  A    between atoms: _50  and  _51
REMARK   20  A    between atoms: _53  and  _55
REMARK   21  A    between atoms: _55  and  _56
REMARK   22  A    between atoms: _55  and  _58
REMARK   23  A    between atoms: _61  and  _63
REMARK   24  A    between atoms: _63  and  _64
REMARK   25  A    between atoms: _66  and  _68
REMARK   26  A    between atoms: _68  and  _69
REMARK   27  A    between atoms: _68  and  _71
REMARK   28  A    between atoms: _71  and  _72
REMARK   29  A    between atoms: _82  and  _84
REMARK   30  A    between atoms: _84  and  _85
REMARK   31  A    between atoms: _84  and  _87
REMARK   32  A    between atoms: _87  and  _88
REMARK   33  A    between atoms: _91  and  _93
REMARK   34  A    between atoms: _93  and  _94
REMARK   35  A    between atoms: _93  and  _96
REMARK   36  A    between atoms: _96  and  _97
REMARK   37  A    between atoms: _100  and  _102
REMARK   38  A    between atoms: _102  and  _103
REMARK   39  A    between atoms: _102  and  _105
REMARK   40  A    between atoms: _105  and  _106
REMARK   41  A    between atoms: _106  and  _107
REMARK   42  A    between atoms: _110  and  _112
REMARK   43  A    between atoms: _112  and  _113
REMARK   44  A    between atoms: _112  and  _115
REMARK   45  A    between atoms: _115  and  _116
REMARK   46  A    between atoms: _122  and  _124
REMARK   47  A    between atoms: _124  and  _125
REMARK   48  A    between atoms: _127  and  _129
REMARK   49  A    between atoms: _129  and  _130
REMARK   50  A    between atoms: _132  and  _134
REMARK   51  A    between atoms: _134  and  _135
REMARK   52  A    between atoms: _138  and  _140
REMARK   53  A    between atoms: _140  and  _141
REMARK   54  A    between atoms: _140  and  _143
REMARK   55  A    between atoms: _143  and  _144
REMARK   56  A    between atoms: _144  and  _145
REMARK   57  A    between atoms: _145  and  _146
REMARK   58  A    between atoms: _146  and  _147
REMARK   59  A    between atoms: _151  and  _153
REMARK   60  A    between atoms: _153  and  _154
REMARK   61  A    between atoms: _153  and  _156
REMARK   62  A    between atoms: _156  and  _157
REMARK   63  A    between atoms: _157  and  _158
REMARK   64  A    between atoms: _160  and  _162
REMARK   65  A    between atoms: _162  and  _163
REMARK   66  A    between atoms: _162  and  _165
REMARK   67  A    between atoms: _165  and  _166
REMARK   68  A    between atoms: _171  and  _172
REMARK   69  A    between atoms: _174  and  _176
REMARK   70  A    between atoms: _176  and  _177
REMARK   71  A    between atoms: _176  and  _179
REMARK   72  A    between atoms: _179  and  _180
REMARK   73  A    between atoms: _183  and  _185
REMARK   74  A    between atoms: _185  and  _186
REMARK   75  A    between atoms: _185  and  _188
REMARK   76  A    between atoms: _188  and  _189
REMARK   77  A    between atoms: _195  and  _197
REMARK   78  A    between atoms: _197  and  _198
REMARK   79  A    between atoms: _197  and  _200
REMARK   80  A    between atoms: _200  and  _201
REMARK   81  A    between atoms: _206  and  _207
REMARK   82  A    between atoms: _209  and  _211
REMARK   83  A    between atoms: _211  and  _212
REMARK   84  A    between atoms: _214  and  _216
REMARK   85  A    between atoms: _216  and  _217
REMARK   86  A    between atoms: _219  and  _221
REMARK   87  A    between atoms: _221  and  _222
REMARK   88  A    between atoms: _221  and  _224
REMARK   89  A    between atoms: _224  and  _225
REMARK   90  A    between atoms: _235  and  _237
REMARK   91  A    between atoms: _237  and  _238
REMARK   92  A    between atoms: _237  and  _240
REMARK   93  A    between atoms: _240  and  _241
REMARK   94  A    between atoms: _246  and  _248
REMARK   95  A    between atoms: _248  and  _249
REMARK   96  A    between atoms: _248  and  _251
REMARK   97  A    between atoms: _251  and  _252
REMARK   98  A    between atoms: _257  and  _258
REMARK   99  A    between atoms: _260  and  _262
REMARK  100  A    between atoms: _262  and  _263
REMARK  101  A    between atoms: _262  and  _265
REMARK  102  A    between atoms: _265  and  _266
REMARK  103  A    between atoms: _271  and  _272
REMARK  104  A    between atoms: _274  and  _276
REMARK  105  A    between atoms: _276  and  _277
REMARK  106  A    between atoms: _276  and  _279
REMARK  107  A    between atoms: _279  and  _280
REMARK  108  A    between atoms: _280  and  _281
REMARK  109  A    between atoms: _281  and  _282
REMARK  110  A    between atoms: _291  and  _293
REMARK  111  A    between atoms: _293  and  _294
REMARK  112  A    between atoms: _293  and  _296
REMARK  113  A    between atoms: _296  and  _297
REMARK  114  A    between atoms: _297  and  _298
REMARK  115  A    between atoms: _298  and  _299
REMARK  116  A    between atoms: _299  and  _300
REMARK  117  A    between atoms: _304  and  _306
REMARK  118  A    between atoms: _306  and  _307
REMARK  119  A    between atoms: _306  and  _309
REMARK  120  A    between atoms: _309  and  _310
REMARK  121  A    between atoms: _310  and  _311
REMARK  122  A    between atoms: _314  and  _316
REMARK  123  A    between atoms: _316  and  _317
REMARK  124  A    between atoms: _316  and  _319
REMARK  125  A    between atoms: _322  and  _324
REMARK  126  A    between atoms: _324  and  _325
REMARK  127  A    between atoms: _324  and  _327
REMARK  128  A    between atoms: _327  and  _328
REMARK  129  A    between atoms: _338  and  _340
REMARK  130  A    between atoms: _340  and  _341
REMARK  131  A    between atoms: _340  and  _343
REMARK  132  A    between atoms: _343  and  _344
REMARK  133  A    between atoms: _344  and  _345
REMARK                            x       y       z     vdW  Elec       q    Type
REMARK                         _______ _______ _______ _____ _____    ______ ____
ROOT
ATOM      1  CG  TYR A   1      10.896  -1.522  18.073  0.00  0.00    -0.021 A 
ATOM      2  CD2 TYR A   1      12.188  -2.016  18.081  0.00  0.00    -0.001 A 
ATOM      3  CE2 TYR A   1      12.459  -3.418  17.808  0.00  0.00    +0.036 A 
ATOM      4  CZ  TYR A   1      11.343  -4.179  17.526  0.00  0.00    +0.134 A 
ATOM      5  CE1 TYR A   1      10.077  -3.691  17.484  0.00  0.00    +0.036 A 
ATOM      6  CD1 TYR A   1       9.809  -2.375  17.809  0.00  0.00    -0.001 A 
ENDROOT
BRANCH   4   7
ATOM      7  OH  TYR A   1      11.539  -5.557  17.230  0.00  0.00    -0.506 OA
ATOM      8  HH  TYR A   1      11.969  -6.002  18.003  0.00  0.00    +0.292 HD
ENDBRANCH   4   7
BRANCH   1   9
ATOM      9  CB  TYR A   1      10.600  -0.048  18.297  0.00  0.00    +0.046 C 
BRANCH   9  10
ATOM     10  CA  TYR A   1      10.401   0.733  16.989  0.00  0.00    +0.106 C 
BRANCH  10  11
ATOM     11  N   TYR A   1       9.209   0.227  16.254  0.00  0.00    -0.244 NA
ATOM     12  H   TYR A   1       9.372  -0.435  15.469  0.00  0.00    +0.141 HD
ENDBRANCH  10  11
BRANCH  10  13
ATOM     13  C   TYR A   1      11.609   0.612  16.141  0.00  0.00    +0.199 C 
ATOM     14  O   TYR A   1      11.632  -0.262  15.177  0.00  0.00    -0.219 OA
ENDBRANCH  10  13
ENDBRANCH   9  10
ENDBRANCH   1   9
TORSDOF 5
REMARK  Name = ../refined-set-2016/3ary/3ary_pocket.pdb
REMARK  133 active torsions:
REMARK  status: ('A' for Active; 'I' for Inactive)
REMARK    1  A    between atoms: _1  and  _3
REMARK    2  A    between atoms: _3  and  _4
REMARK    3  A    between atoms: _3  and  _6
REMARK    4  A    between atoms: _6  and  _7
REMARK    5  A    between atoms: _17  and  _19
REMARK    6  A    between atoms: _19  and  _20
REMARK    7  A    between atoms: _19  and  _22
REMARK    8  A    between atoms: _22  and  _23
REMARK    9  A    between atoms: _29  and  _31
REMARK   10  A    between atoms: _31  and  _32
REMARK   11  A    between atoms: _31  and  _34
REMARK   12  A    between atoms: _34  and  _35
REMARK   13  A    between atoms: _37  and  _39
REMARK   14  A    between atoms: _39  and  _40
REMARK   15  A    between atoms: _39  and  _42
REMARK   16  A    between atoms: _45  and  _47
REMARK   17  A    between atoms: _47  and  _48
REMARK   18  A    between atoms: _47  and  _50
REMARK   19  A    between atoms: _50  and  _51
REMARK   20  A    between atoms: _53  and  _55
REMARK   21  A    between atoms: _55  and  _56
REMARK   22  A    between atoms: _55  and  _58
REMARK   23  A    between atoms: _61  and  _63
REMARK   24  A    between atoms: _63  and  _64
REMARK   25  A    between atoms: _66  and  _68
REMARK   26  A    between atoms: _68  and  _69
REMARK   27  A    between atoms: _68  and  _71
REMARK   28  A    between atoms: _71  and  _72
REMARK   29  A    between atoms: _82  and  _84
REMARK   30  A    between atoms: _84  and  _85
REMARK   31  A    between atoms: _84  and  _87
REMARK   32  A    between atoms: _87  and  _88
REMARK   33  A    between atoms: _91  and  _93
REMARK   34  A    between atoms: _93  and  _94
REMARK   35  A    between atoms: _93  and  _96
REMARK   36  A    between atoms: _96  and  _97
REMARK   37  A    between atoms: _100  and  _102
REMARK   38  A    between atoms: _102  and  _103
REMARK   39  A    between atoms: _102  and  _105
REMARK   40  A    between atoms: _105  and  _106
REMARK   41  A    between atoms: _106  and  _107
REMARK   42  A    between atoms: _110  and  _112
REMARK   43  A    between atoms: _112  and  _113
REMARK   44  A    between atoms: _112  and  _115
REMARK   45  A    between atoms: _115  and  _116
REMARK   46  A    between atoms: _122  and  _124
REMARK   47  A    between atoms: _124  and  _125
REMARK   48  A    between atoms: _127  and  _129
REMARK   49  A    between atoms: _129  and  _130
REMARK   50  A    between atoms: _132  and  _134
REMARK   51  A    between atoms: _134  and  _135
REMARK   52  A    between atoms: _138  and  _140
REMARK   53  A    between atoms: _140  and  _141
REMARK   54  A    between atoms: _140  and  _143
REMARK   55  A    between atoms: _143  and  _144
REMARK   56  A    between atoms: _144  and  _145
REMARK   57  A    between atoms: _145  and  _146
REMARK   58  A    between atoms: _146  and  _147
REMARK   59  A    between atoms: _151  and  _153
REMARK   60  A    between atoms: _153  and  _154
REMARK   61  A    between atoms: _153  and  _156
REMARK   62  A    between atoms: _156  and  _157
REMARK   63  A    between atoms: _157  and  _158
REMARK   64  A    between atoms: _160  and  _162
REMARK   65  A    between atoms: _162  and  _163
REMARK   66  A    between atoms: _162  and  _165
REMARK   67  A    between atoms: _165  and  _166
REMARK   68  A    between atoms: _171  and  _172
REMARK   69  A    between atoms: _174  and  _176
REMARK   70  A    between atoms: _176  and  _177
REMARK   71  A    between atoms: _176  and  _179
REMARK   72  A    between atoms: _179  and  _180
REMARK   73  A    between atoms: _183  and  _185
REMARK   74  A    between atoms: _185  and  _186
REMARK   75  A    between atoms: _185  and  _188
REMARK   76  A    between atoms: _188  and  _189
REMARK   77  A    between atoms: _195  and  _197
REMARK   78  A    between atoms: _197  and  _198
REMARK   79  A    between atoms: _197  and  _200
REMARK   80  A    between atoms: _200  and  _201
REMARK   81  A    between atoms: _206  and  _207
REMARK   82  A    between atoms: _209  and  _211
REMARK   83  A    between atoms: _211  and  _212
REMARK   84  A    between atoms: _214  and  _216
REMARK   85  A    between atoms: _216  and  _217
REMARK   86  A    between atoms: _219  and  _221
REMARK   87  A    between atoms: _221  and  _222
REMARK   88  A    between atoms: _221  and  _224
REMARK   89  A    between atoms: _224  and  _225
REMARK   90  A    between atoms: _235  and  _237
REMARK   91  A    between atoms: _237  and  _238
REMARK   92  A    between atoms: _237  and  _240
REMARK   93  A    between atoms: _240  and  _241
REMARK   94  A    between atoms: _246  and  _248
REMARK   95  A    between atoms: _248  and  _249
REMARK   96  A    between atoms: _248  and  _251
REMARK   97  A    between atoms: _251  and  _252
REMARK   98  A    between atoms: _257  and  _258
REMARK   99  A    between atoms: _260  and  _262
REMARK  100  A    between atoms: _262  and  _263
REMARK  101  A    between atoms: _262  and  _265
REMARK  102  A    between atoms: _265  and  _266
REMARK  103  A    between atoms: _271  and  _272
REMARK  104  A    between atoms: _274  and  _276
REMARK  105  A    between atoms: _276  and  _277
REMARK  106  A    between atoms: _276  and  _279
REMARK  107  A    between atoms: _279  and  _280
REMARK  108  A    between atoms: _280  and  _281
REMARK  109  A    between atoms: _281  and  _282
REMARK  110  A    between atoms: _291  and  _293
REMARK  111  A    between atoms: _293  and  _294
REMARK  112  A    between atoms: _293  and  _296
REMARK  113  A    between atoms: _296  and  _297
REMARK  114  A    between atoms: _297  and  _298
REMARK  115  A    between atoms: _298  and  _299
REMARK  116  A    between atoms: _299  and  _300
REMARK  117  A    between atoms: _304  and  _306
REMARK  118  A    between atoms: _306  and  _307
REMARK  119  A    between atoms: _306  and  _309
REMARK  120  A    between atoms: _309  and  _310
REMARK  121  A    between atoms: _310  and  _311
REMARK  122  A    between atoms: _314  and  _316
REMARK  123  A    between atoms: _316  and  _317
REMARK  124  A    between atoms: _316  and  _319
REMARK  125  A    between atoms: _322  and  _324
REMARK  126  A    between atoms: _324  and  _325
REMARK  127  A    between atoms: _324  and  _327
REMARK  128  A    between atoms: _327  and  _328
REMARK  129  A    between atoms: _338  and  _340
REMARK  130  A    between atoms: _340  and  _341
REMARK  131  A    between atoms: _340  and  _343
REMARK  132  A    between atoms: _343  and  _344
REMARK  133  A    between atoms: _344  and  _345
REMARK                            x       y       z     vdW  Elec       q    Type
REMARK                         _______ _______ _______ _____ _____    ______ ____
ROOT
ATOM      1  NE  ARG A   1      15.885  -4.900  18.652  0.00  0.00    -0.265 N 
ATOM      2  CZ  ARG A   1      15.922  -5.001  19.959  0.00  0.00    +0.342 C 
ATOM      3  NH2 ARG A   1      16.843  -4.425  20.734  0.00  0.00    -0.292 N 
ATOM      4 HH21 ARG A   1      16.807  -4.551  21.766  0.00  0.00    +0.255 HD
ATOM      5 HH22 ARG A   1      17.597  -3.850  20.306  0.00  0.00    +0.255 HD
ATOM      6  NH1 ARG A   1      14.908  -5.713  20.556  0.00  0.00    -0.292 N 
ATOM      7 HH11 ARG A   1      14.889  -5.824  21.590  0.00  0.00    +0.255 HD
ATOM      8 HH12 ARG A   1      14.160  -6.141  19.974  0.00  0.00    +0.255 HD
ATOM      9  HE  ARG A   1      15.110  -5.370  18.142  0.00  0.00    +0.259 HD
ENDROOT
BRANCH   1  10
ATOM     10  CD  ARG A   1      16.862  -4.173  17.889  0.00  0.00    +0.174 C 
BRANCH  10  11
ATOM     11  CG  ARG A   1      16.408  -2.694  17.736  0.00  0.00    +0.045 C 
BRANCH  11  12
ATOM     12  CB  ARG A   1      17.495  -1.867  17.044  0.00  0.00    +0.029 C 
BRANCH  12  13
ATOM     13  CA  ARG A   1      17.146  -0.333  17.082  0.00  0.00    +0.133 C 
BRANCH  13  14
ATOM     14  N   ARG A   1      15.964  -0.022  16.299  0.00  0.00    -0.239 NA
ATOM     15  H   ARG A   1      15.941  -0.247  15.284  0.00  0.00    +0.142 HD
ENDBRANCH  13  14
BRANCH  13  16
ATOM     16  C   ARG A   1      18.278   0.530  16.598  0.00  0.00    +0.224 C 
ATOM     17  O   ARG A   1      18.275   0.911  15.398  0.00  0.00    -0.287 OA
ENDBRANCH  13  16
ENDBRANCH  12  13
ENDBRANCH  11  12
ENDBRANCH  10  11
ENDBRANCH   1  10
TORSDOF 6
REMARK  Name = ../refined-set-2016/3ary/3ary_pocket.pdb
REMARK  133 active torsions:
REMARK  status: ('A' for Active; 'I' for Inactive)
REMARK    1  A    between atoms: _1  and  _3
REMARK    2  A    between atoms: _3  and  _4
REMARK    3  A    between atoms: _3  and  _6
REMARK    4  A    between atoms: _6  and  _7
REMARK    5  A    between atoms: _17  and  _19
REMARK    6  A    between atoms: _19  and  _20
REMARK    7  A    between atoms: _19  and  _22
REMARK    8  A    between atoms: _22  and  _23
REMARK    9  A    between atoms: _29  and  _31
REMARK   10  A    between atoms: _31  and  _32
REMARK   11  A    between atoms: _31  and  _34
REMARK   12  A    between atoms: _34  and  _35
REMARK   13  A    between atoms: _37  and  _39
REMARK   14  A    between atoms: _39  and  _40
REMARK   15  A    between atoms: _39  and  _42
REMARK   16  A    between atoms: _45  and  _47
REMARK   17  A    between atoms: _47  and  _48
REMARK   18  A    between atoms: _47  and  _50
REMARK   19  A    between atoms: _50  and  _51
REMARK   20  A    between atoms: _53  and  _55
REMARK   21  A    between atoms: _55  and  _56
REMARK   22  A    between atoms: _55  and  _58
REMARK   23  A    between atoms: _61  and  _63
REMARK   24  A    between atoms: _63  and  _64
REMARK   25  A    between atoms: _66  and  _68
REMARK   26  A    between atoms: _68  and  _69
REMARK   27  A    between atoms: _68  and  _71
REMARK   28  A    between atoms: _71  and  _72
REMARK   29  A    between atoms: _82  and  _84
REMARK   30  A    between atoms: _84  and  _85
REMARK   31  A    between atoms: _84  and  _87
REMARK   32  A    between atoms: _87  and  _88
REMARK   33  A    between atoms: _91  and  _93
REMARK   34  A    between atoms: _93  and  _94
REMARK   35  A    between atoms: _93  and  _96
REMARK   36  A    between atoms: _96  and  _97
REMARK   37  A    between atoms: _100  and  _102
REMARK   38  A    between atoms: _102  and  _103
REMARK   39  A    between atoms: _102  and  _105
REMARK   40  A    between atoms: _105  and  _106
REMARK   41  A    between atoms: _106  and  _107
REMARK   42  A    between atoms: _110  and  _112
REMARK   43  A    between atoms: _112  and  _113
REMARK   44  A    between atoms: _112  and  _115
REMARK   45  A    between atoms: _115  and  _116
REMARK   46  A    between atoms: _122  and  _124
REMARK   47  A    between atoms: _124  and  _125
REMARK   48  A    between atoms: _127  and  _129
REMARK   49  A    between atoms: _129  and  _130
REMARK   50  A    between atoms: _132  and  _134
REMARK   51  A    between atoms: _134  and  _135
REMARK   52  A    between atoms: _138  and  _140
REMARK   53  A    between atoms: _140  and  _141
REMARK   54  A    between atoms: _140  and  _143
REMARK   55  A    between atoms: _143  and  _144
REMARK   56  A    between atoms: _144  and  _145
REMARK   57  A    between atoms: _145  and  _146
REMARK   58  A    between atoms: _146  and  _147
REMARK   59  A    between atoms: _151  and  _153
REMARK   60  A    between atoms: _153  and  _154
REMARK   61  A    between atoms: _153  and  _156
REMARK   62  A    between atoms: _156  and  _157
REMARK   63  A    between atoms: _157  and  _158
REMARK   64  A    between atoms: _160  and  _162
REMARK   65  A    between atoms: _162  and  _163
REMARK   66  A    between atoms: _162  and  _165
REMARK   67  A    between atoms: _165  and  _166
REMARK   68  A    between atoms: _171  and  _172
REMARK   69  A    between atoms: _174  and  _176
REMARK   70  A    between atoms: _176  and  _177
REMARK   71  A    between atoms: _176  and  _179
REMARK   72  A    between atoms: _179  and  _180
REMARK   73  A    between atoms: _183  and  _185
REMARK   74  A    between atoms: _185  and  _186
REMARK   75  A    between atoms: _185  and  _188
REMARK   76  A    between atoms: _188  and  _189
REMARK   77  A    between atoms: _195  and  _197
REMARK   78  A    between atoms: _197  and  _198
REMARK   79  A    between atoms: _197  and  _200
REMARK   80  A    between atoms: _200  and  _201
REMARK   81  A    between atoms: _206  and  _207
REMARK   82  A    between atoms: _209  and  _211
REMARK   83  A    between atoms: _211  and  _212
REMARK   84  A    between atoms: _214  and  _216
REMARK   85  A    between atoms: _216  and  _217
REMARK   86  A    between atoms: _219  and  _221
REMARK   87  A    between atoms: _221  and  _222
REMARK   88  A    between atoms: _221  and  _224
REMARK   89  A    between atoms: _224  and  _225
REMARK   90  A    between atoms: _235  and  _237
REMARK   91  A    between atoms: _237  and  _238
REMARK   92  A    between atoms: _237  and  _240
REMARK   93  A    between atoms: _240  and  _241
REMARK   94  A    between atoms: _246  and  _248
REMARK   95  A    between atoms: _248  and  _249
REMARK   96  A    between atoms: _248  and  _251
REMARK   97  A    between atoms: _251  and  _252
REMARK   98  A    between atoms: _257  and  _258
REMARK   99  A    between atoms: _260  and  _262
REMARK  100  A    between atoms: _262  and  _263
REMARK  101  A    between atoms: _262  and  _265
REMARK  102  A    between atoms: _265  and  _266
REMARK  103  A    between atoms: _271  and  _272
REMARK  104  A    between atoms: _274  and  _276
REMARK  105  A    between atoms: _276  and  _277
REMARK  106  A    between atoms: _276  and  _279
REMARK  107  A    between atoms: _279  and  _280
REMARK  108  A    between atoms: _280  and  _281
REMARK  109  A    between atoms: _281  and  _282
REMARK  110  A    between atoms: _291  and  _293
REMARK  111  A    between atoms: _293  and  _294
REMARK  112  A    between atoms: _293  and  _296
REMARK  113  A    between atoms: _296  and  _297
REMARK  114  A    between atoms: _297  and  _298
REMARK  115  A    between atoms: _298  and  _299
REMARK  116  A    between atoms: _299  and  _300
REMARK  117  A    between atoms: _304  and  _306
REMARK  118  A    between atoms: _306  and  _307
REMARK  119  A    between atoms: _306  and  _309
REMARK  120  A    between atoms: _309  and  _310
REMARK  121  A    between atoms: _310  and  _311
REMARK  122  A    between atoms: _314  and  _316
REMARK  123  A    between atoms: _316  and  _317
REMARK  124  A    between atoms: _316  and  _319
REMARK  125  A    between atoms: _322  and  _324
REMARK  126  A    between atoms: _324  and  _325
REMARK  127  A    between atoms: _324  and  _327
REMARK  128  A    between atoms: _327  and  _328
REMARK  129  A    between atoms: _338  and  _340
REMARK  130  A    between atoms: _340  and  _341
REMARK  131  A    between atoms: _340  and  _343
REMARK  132  A    between atoms: _343  and  _344
REMARK  133  A    between atoms: _344  and  _345
REMARK                            x       y       z     vdW  Elec       q    Type
REMARK                         _______ _______ _______ _____ _____    ______ ____
ROOT
ATOM      1  CG  LYS A   1      23.548  -0.520  23.005  0.00  0.00    -0.000 C 
ENDROOT
BRANCH   1   2
ATOM      2  CB  LYS A   1      23.328   0.951  22.874  0.00  0.00    +0.025 C 
BRANCH   2   3
ATOM      3  CA  LYS A   1      24.088   1.509  21.682  0.00  0.00    +0.133 C 
BRANCH   3   4
ATOM      4  N   LYS A   1      25.564   1.431  21.941  0.00  0.00    -0.239 NA
ATOM      5  H   LYS A   1      25.905   1.294  22.914  0.00  0.00    +0.142 HD
ENDBRANCH   3   4
BRANCH   3   6
ATOM      6  C   LYS A   1      23.668   3.011  21.579  0.00  0.00    +0.224 C 
ATOM      7  O   LYS A   1      24.222   3.916  22.245  0.00  0.00    -0.287 OA
ENDBRANCH   3   6
ENDBRANCH   2   3
ENDBRANCH   1   2
BRANCH   1   8
ATOM      8  CD  LYS A   1      22.916  -1.041  24.257  0.00  0.00    -0.024 C 
BRANCH   8   9
ATOM      9  CE  LYS A   1      23.152  -2.591  24.376  0.00  0.00    -0.086 C 
BRANCH   9  10
ATOM     10  NZ  LYS A   1      22.606  -3.108  25.707  0.00  0.00    +0.380 N 
ATOM     11  HZ1 LYS A   1      23.093  -2.628  26.490  0.00  0.00    -0.089 HD
ATOM     12  HZ2 LYS A   1      22.769  -4.133  25.772  0.00  0.00    -0.089 HD
ATOM     13  HZ3 LYS A   1      21.586  -2.913  25.761  0.00  0.00    -0.089 HD
ENDBRANCH   9  10
ENDBRANCH   8   9
ENDBRANCH   1   8
TORSDOF 7
REMARK  Name = ../refined-set-2016/3ary/3ary_pocket.pdb
REMARK  133 active torsions:
REMARK  status: ('A' for Active; 'I' for Inactive)
REMARK    1  A    between atoms: _1  and  _3
REMARK    2  A    between atoms: _3  and  _4
REMARK    3  A    between atoms: _3  and  _6
REMARK    4  A    between atoms: _6  and  _7
REMARK    5  A    between atoms: _17  and  _19
REMARK    6  A    between atoms: _19  and  _20
REMARK    7  A    between atoms: _19  and  _22
REMARK    8  A    between atoms: _22  and  _23
REMARK    9  A    between atoms: _29  and  _31
REMARK   10  A    between atoms: _31  and  _32
REMARK   11  A    between atoms: _31  and  _34
REMARK   12  A    between atoms: _34  and  _35
REMARK   13  A    between atoms: _37  and  _39
REMARK   14  A    between atoms: _39  and  _40
REMARK   15  A    between atoms: _39  and  _42
REMARK   16  A    between atoms: _45  and  _47
REMARK   17  A    between atoms: _47  and  _48
REMARK   18  A    between atoms: _47  and  _50
REMARK   19  A    between atoms: _50  and  _51
REMARK   20  A    between atoms: _53  and  _55
REMARK   21  A    between atoms: _55  and  _56
REMARK   22  A    between atoms: _55  and  _58
REMARK   23  A    between atoms: _61  and  _63
REMARK   24  A    between atoms: _63  and  _64
REMARK   25  A    between atoms: _66  and  _68
REMARK   26  A    between atoms: _68  and  _69
REMARK   27  A    between atoms: _68  and  _71
REMARK   28  A    between atoms: _71  and  _72
REMARK   29  A    between atoms: _82  and  _84
REMARK   30  A    between atoms: _84  and  _85
REMARK   31  A    between atoms: _84  and  _87
REMARK   32  A    between atoms: _87  and  _88
REMARK   33  A    between atoms: _91  and  _93
REMARK   34  A    between atoms: _93  and  _94
REMARK   35  A    between atoms: _93  and  _96
REMARK   36  A    between atoms: _96  and  _97
REMARK   37  A    between atoms: _100  and  _102
REMARK   38  A    between atoms: _102  and  _103
REMARK   39  A    between atoms: _102  and  _105
REMARK   40  A    between atoms: _105  and  _106
REMARK   41  A    between atoms: _106  and  _107
REMARK   42  A    between atoms: _110  and  _112
REMARK   43  A    between atoms: _112  and  _113
REMARK   44  A    between atoms: _112  and  _115
REMARK   45  A    between atoms: _115  and  _116
REMARK   46  A    between atoms: _122  and  _124
REMARK   47  A    between atoms: _124  and  _125
REMARK   48  A    between atoms: _127  and  _129
REMARK   49  A    between atoms: _129  and  _130
REMARK   50  A    between atoms: _132  and  _134
REMARK   51  A    between atoms: _134  and  _135
REMARK   52  A    between atoms: _138  and  _140
REMARK   53  A    between atoms: _140  and  _141
REMARK   54  A    between atoms: _140  and  _143
REMARK   55  A    between atoms: _143  and  _144
REMARK   56  A    between atoms: _144  and  _145
REMARK   57  A    between atoms: _145  and  _146
REMARK   58  A    between atoms: _146  and  _147
REMARK   59  A    between atoms: _151  and  _153
REMARK   60  A    between atoms: _153  and  _154
REMARK   61  A    between atoms: _153  and  _156
REMARK   62  A    between atoms: _156  and  _157
REMARK   63  A    between atoms: _157  and  _158
REMARK   64  A    between atoms: _160  and  _162
REMARK   65  A    between atoms: _162  and  _163
REMARK   66  A    between atoms: _162  and  _165
REMARK   67  A    between atoms: _165  and  _166
REMARK   68  A    between atoms: _171  and  _172
REMARK   69  A    between atoms: _174  and  _176
REMARK   70  A    between atoms: _176  and  _177
REMARK   71  A    between atoms: _176  and  _179
REMARK   72  A    between atoms: _179  and  _180
REMARK   73  A    between atoms: _183  and  _185
REMARK   74  A    between atoms: _185  and  _186
REMARK   75  A    between atoms: _185  and  _188
REMARK   76  A    between atoms: _188  and  _189
REMARK   77  A    between atoms: _195  and  _197
REMARK   78  A    between atoms: _197  and  _198
REMARK   79  A    between atoms: _197  and  _200
REMARK   80  A    between atoms: _200  and  _201
REMARK   81  A    between atoms: _206  and  _207
REMARK   82  A    between atoms: _209  and  _211
REMARK   83  A    between atoms: _211  and  _212
REMARK   84  A    between atoms: _214  and  _216
REMARK   85  A    between atoms: _216  and  _217
REMARK   86  A    between atoms: _219  and  _221
REMARK   87  A    between atoms: _221  and  _222
REMARK   88  A    between atoms: _221  and  _224
REMARK   89  A    between atoms: _224  and  _225
REMARK   90  A    between atoms: _235  and  _237
REMARK   91  A    between atoms: _237  and  _238
REMARK   92  A    between atoms: _237  and  _240
REMARK   93  A    between atoms: _240  and  _241
REMARK   94  A    between atoms: _246  and  _248
REMARK   95  A    between atoms: _248  and  _249
REMARK   96  A    between atoms: _248  and  _251
REMARK   97  A    between atoms: _251  and  _252
REMARK   98  A    between atoms: _257  and  _258
REMARK   99  A    between atoms: _260  and  _262
REMARK  100  A    between atoms: _262  and  _263
REMARK  101  A    between atoms: _262  and  _265
REMARK  102  A    between atoms: _265  and  _266
REMARK  103  A    between atoms: _271  and  _272
REMARK  104  A    between atoms: _274  and  _276
REMARK  105  A    between atoms: _276  and  _277
REMARK  106  A    between atoms: _276  and  _279
REMARK  107  A    between atoms: _279  and  _280
REMARK  108  A    between atoms: _280  and  _281
REMARK  109  A    between atoms: _281  and  _282
REMARK  110  A    between atoms: _291  and  _293
REMARK  111  A    between atoms: _293  and  _294
REMARK  112  A    between atoms: _293  and  _296
REMARK  113  A    between atoms: _296  and  _297
REMARK  114  A    between atoms: _297  and  _298
REMARK  115  A    between atoms: _298  and  _299
REMARK  116  A    between atoms: _299  and  _300
REMARK  117  A    between atoms: _304  and  _306
REMARK  118  A    between atoms: _306  and  _307
REMARK  119  A    between atoms: _306  and  _309
REMARK  120  A    between atoms: _309  and  _310
REMARK  121  A    between atoms: _310  and  _311
REMARK  122  A    between atoms: _314  and  _316
REMARK  123  A    between atoms: _316  and  _317
REMARK  124  A    between atoms: _316  and  _319
REMARK  125  A    between atoms: _322  and  _324
REMARK  126  A    between atoms: _324  and  _325
REMARK  127  A    between atoms: _324  and  _327
REMARK  128  A    between atoms: _327  and  _328
REMARK  129  A    between atoms: _338  and  _340
REMARK  130  A    between atoms: _340  and  _341
REMARK  131  A    between atoms: _340  and  _343
REMARK  132  A    between atoms: _343  and  _344
REMARK  133  A    between atoms: _344  and  _345
REMARK                            x       y       z     vdW  Elec       q    Type
REMARK                         _______ _______ _______ _____ _____    ______ ____
ROOT
ATOM      1  CA  GLU A   1      16.269   1.197  27.135  0.00  0.00    +0.102 C 
ENDROOT
BRANCH   1   2
ATOM      2  N   GLU A   1      15.083   1.938  26.794  0.00  0.00    -0.244 NA
ATOM      3  H   GLU A   1      14.883   2.114  25.789  0.00  0.00    +0.141 HD
ENDBRANCH   1   2
BRANCH   1   4
ATOM      4  C   GLU A   1      17.260   1.447  26.057  0.00  0.00    +0.199 C 
ATOM      5  O   GLU A   1      16.893   1.731  24.843  0.00  0.00    -0.219 OA
ENDBRANCH   1   4
BRANCH   1   6
ATOM      6  CB  GLU A   1      15.970  -0.280  27.288  0.00  0.00    +0.032 C 
BRANCH   6   7
ATOM      7  CG  GLU A   1      15.658  -0.941  26.012  0.00  0.00    +0.116 C 
BRANCH   7   8
ATOM      8  CD  GLU A   1      15.759  -2.512  26.103  0.00  0.00    +0.365 C 
ATOM      9  OE2 GLU A   1      16.820  -3.095  26.515  0.00  0.00    -0.246 OA
ATOM     10  OE1 GLU A   1      14.801  -3.150  25.641  0.00  0.00    -0.246 OA
ENDBRANCH   7   8
ENDBRANCH   6   7
ENDBRANCH   1   6
TORSDOF 5
REMARK  Name = ../refined-set-2016/3ary/3ary_pocket.pdb
REMARK  133 active torsions:
REMARK  status: ('A' for Active; 'I' for Inactive)
REMARK    1  A    between atoms: _1  and  _3
REMARK    2  A    between atoms: _3  and  _4
REMARK    3  A    between atoms: _3  and  _6
REMARK    4  A    between atoms: _6  and  _7
REMARK    5  A    between atoms: _17  and  _19
REMARK    6  A    between atoms: _19  and  _20
REMARK    7  A    between atoms: _19  and  _22
REMARK    8  A    between atoms: _22  and  _23
REMARK    9  A    between atoms: _29  and  _31
REMARK   10  A    between atoms: _31  and  _32
REMARK   11  A    between atoms: _31  and  _34
REMARK   12  A    between atoms: _34  and  _35
REMARK   13  A    between atoms: _37  and  _39
REMARK   14  A    between atoms: _39  and  _40
REMARK   15  A    between atoms: _39  and  _42
REMARK   16  A    between atoms: _45  and  _47
REMARK   17  A    between atoms: _47  and  _48
REMARK   18  A    between atoms: _47  and  _50
REMARK   19  A    between atoms: _50  and  _51
REMARK   20  A    between atoms: _53  and  _55
REMARK   21  A    between atoms: _55  and  _56
REMARK   22  A    between atoms: _55  and  _58
REMARK   23  A    between atoms: _61  and  _63
REMARK   24  A    between atoms: _63  and  _64
REMARK   25  A    between atoms: _66  and  _68
REMARK   26  A    between atoms: _68  and  _69
REMARK   27  A    between atoms: _68  and  _71
REMARK   28  A    between atoms: _71  and  _72
REMARK   29  A    between atoms: _82  and  _84
REMARK   30  A    between atoms: _84  and  _85
REMARK   31  A    between atoms: _84  and  _87
REMARK   32  A    between atoms: _87  and  _88
REMARK   33  A    between atoms: _91  and  _93
REMARK   34  A    between atoms: _93  and  _94
REMARK   35  A    between atoms: _93  and  _96
REMARK   36  A    between atoms: _96  and  _97
REMARK   37  A    between atoms: _100  and  _102
REMARK   38  A    between atoms: _102  and  _103
REMARK   39  A    between atoms: _102  and  _105
REMARK   40  A    between atoms: _105  and  _106
REMARK   41  A    between atoms: _106  and  _107
REMARK   42  A    between atoms: _110  and  _112
REMARK   43  A    between atoms: _112  and  _113
REMARK   44  A    between atoms: _112  and  _115
REMARK   45  A    between atoms: _115  and  _116
REMARK   46  A    between atoms: _122  and  _124
REMARK   47  A    between atoms: _124  and  _125
REMARK   48  A    between atoms: _127  and  _129
REMARK   49  A    between atoms: _129  and  _130
REMARK   50  A    between atoms: _132  and  _134
REMARK   51  A    between atoms: _134  and  _135
REMARK   52  A    between atoms: _138  and  _140
REMARK   53  A    between atoms: _140  and  _141
REMARK   54  A    between atoms: _140  and  _143
REMARK   55  A    between atoms: _143  and  _144
REMARK   56  A    between atoms: _144  and  _145
REMARK   57  A    between atoms: _145  and  _146
REMARK   58  A    between atoms: _146  and  _147
REMARK   59  A    between atoms: _151  and  _153
REMARK   60  A    between atoms: _153  and  _154
REMARK   61  A    between atoms: _153  and  _156
REMARK   62  A    between atoms: _156  and  _157
REMARK   63  A    between atoms: _157  and  _158
REMARK   64  A    between atoms: _160  and  _162
REMARK   65  A    between atoms: _162  and  _163
REMARK   66  A    between atoms: _162  and  _165
REMARK   67  A    between atoms: _165  and  _166
REMARK   68  A    between atoms: _171  and  _172
REMARK   69  A    between atoms: _174  and  _176
REMARK   70  A    between atoms: _176  and  _177
REMARK   71  A    between atoms: _176  and  _179
REMARK   72  A    between atoms: _179  and  _180
REMARK   73  A    between atoms: _183  and  _185
REMARK   74  A    between atoms: _185  and  _186
REMARK   75  A    between atoms: _185  and  _188
REMARK   76  A    between atoms: _188  and  _189
REMARK   77  A    between atoms: _195  and  _197
REMARK   78  A    between atoms: _197  and  _198
REMARK   79  A    between atoms: _197  and  _200
REMARK   80  A    between atoms: _200  and  _201
REMARK   81  A    between atoms: _206  and  _207
REMARK   82  A    between atoms: _209  and  _211
REMARK   83  A    between atoms: _211  and  _212
REMARK   84  A    between atoms: _214  and  _216
REMARK   85  A    between atoms: _216  and  _217
REMARK   86  A    between atoms: _219  and  _221
REMARK   87  A    between atoms: _221  and  _222
REMARK   88  A    between atoms: _221  and  _224
REMARK   89  A    between atoms: _224  and  _225
REMARK   90  A    between atoms: _235  and  _237
REMARK   91  A    between atoms: _237  and  _238
REMARK   92  A    between atoms: _237  and  _240
REMARK   93  A    between atoms: _240  and  _241
REMARK   94  A    between atoms: _246  and  _248
REMARK   95  A    between atoms: _248  and  _249
REMARK   96  A    between atoms: _248  and  _251
REMARK   97  A    between atoms: _251  and  _252
REMARK   98  A    between atoms: _257  and  _258
REMARK   99  A    between atoms: _260  and  _262
REMARK  100  A    between atoms: _262  and  _263
REMARK  101  A    between atoms: _262  and  _265
REMARK  102  A    between atoms: _265  and  _266
REMARK  103  A    between atoms: _271  and  _272
REMARK  104  A    between atoms: _274  and  _276
REMARK  105  A    between atoms: _276  and  _277
REMARK  106  A    between atoms: _276  and  _279
REMARK  107  A    between atoms: _279  and  _280
REMARK  108  A    between atoms: _280  and  _281
REMARK  109  A    between atoms: _281  and  _282
REMARK  110  A    between atoms: _291  and  _293
REMARK  111  A    between atoms: _293  and  _294
REMARK  112  A    between atoms: _293  and  _296
REMARK  113  A    between atoms: _296  and  _297
REMARK  114  A    between atoms: _297  and  _298
REMARK  115  A    between atoms: _298  and  _299
REMARK  116  A    between atoms: _299  and  _300
REMARK  117  A    between atoms: _304  and  _306
REMARK  118  A    between atoms: _306  and  _307
REMARK  119  A    between atoms: _306  and  _309
REMARK  120  A    between atoms: _309  and  _310
REMARK  121  A    between atoms: _310  and  _311
REMARK  122  A    between atoms: _314  and  _316
REMARK  123  A    between atoms: _316  and  _317
REMARK  124  A    between atoms: _316  and  _319
REMARK  125  A    between atoms: _322  and  _324
REMARK  126  A    between atoms: _324  and  _325
REMARK  127  A    between atoms: _324  and  _327
REMARK  128  A    between atoms: _327  and  _328
REMARK  129  A    between atoms: _338  and  _340
REMARK  130  A    between atoms: _340  and  _341
REMARK  131  A    between atoms: _340  and  _343
REMARK  132  A    between atoms: _343  and  _344
REMARK  133  A    between atoms: _344  and  _345
REMARK                            x       y       z     vdW  Elec       q    Type
REMARK                         _______ _______ _______ _____ _____    ______ ____
ROOT
ATOM      1  CA  VAL A   1      15.816   0.830  21.244  0.00  0.00    +0.133 C 
ENDROOT
BRANCH   1   2
ATOM      2  CB  VAL A   1      15.105  -0.224  22.099  0.00  0.00    +0.023 C 
ATOM      3  CG2 VAL A   1      15.967  -1.530  22.222  0.00  0.00    +0.002 C 
ATOM      4  CG1 VAL A   1      13.781  -0.637  21.479  0.00  0.00    +0.002 C 
ENDBRANCH   1   2
BRANCH   1   5
ATOM      5  N   VAL A   1      17.195   1.139  21.778  0.00  0.00    -0.239 NA
ATOM      6  H   VAL A   1      17.326   1.753  22.607  0.00  0.00    +0.142 HD
ENDBRANCH   1   5
BRANCH   1   7
ATOM      7  C   VAL A   1      15.048   2.175  21.341  0.00  0.00    +0.224 C 
ATOM      8  O   VAL A   1      15.135   2.882  22.386  0.00  0.00    -0.287 OA
ENDBRANCH   1   7
TORSDOF 3
REMARK  Name = ../refined-set-2016/3ary/3ary_pocket.pdb
REMARK  133 active torsions:
REMARK  status: ('A' for Active; 'I' for Inactive)
REMARK    1  A    between atoms: _1  and  _3
REMARK    2  A    between atoms: _3  and  _4
REMARK    3  A    between atoms: _3  and  _6
REMARK    4  A    between atoms: _6  and  _7
REMARK    5  A    between atoms: _17  and  _19
REMARK    6  A    between atoms: _19  and  _20
REMARK    7  A    between atoms: _19  and  _22
REMARK    8  A    between atoms: _22  and  _23
REMARK    9  A    between atoms: _29  and  _31
REMARK   10  A    between atoms: _31  and  _32
REMARK   11  A    between atoms: _31  and  _34
REMARK   12  A    between atoms: _34  and  _35
REMARK   13  A    between atoms: _37  and  _39
REMARK   14  A    between atoms: _39  and  _40
REMARK   15  A    between atoms: _39  and  _42
REMARK   16  A    between atoms: _45  and  _47
REMARK   17  A    between atoms: _47  and  _48
REMARK   18  A    between atoms: _47  and  _50
REMARK   19  A    between atoms: _50  and  _51
REMARK   20  A    between atoms: _53  and  _55
REMARK   21  A    between atoms: _55  and  _56
REMARK   22  A    between atoms: _55  and  _58
REMARK   23  A    between atoms: _61  and  _63
REMARK   24  A    between atoms: _63  and  _64
REMARK   25  A    between atoms: _66  and  _68
REMARK   26  A    between atoms: _68  and  _69
REMARK   27  A    between atoms: _68  and  _71
REMARK   28  A    between atoms: _71  and  _72
REMARK   29  A    between atoms: _82  and  _84
REMARK   30  A    between atoms: _84  and  _85
REMARK   31  A    between atoms: _84  and  _87
REMARK   32  A    between atoms: _87  and  _88
REMARK   33  A    between atoms: _91  and  _93
REMARK   34  A    between atoms: _93  and  _94
REMARK   35  A    between atoms: _93  and  _96
REMARK   36  A    between atoms: _96  and  _97
REMARK   37  A    between atoms: _100  and  _102
REMARK   38  A    between atoms: _102  and  _103
REMARK   39  A    between atoms: _102  and  _105
REMARK   40  A    between atoms: _105  and  _106
REMARK   41  A    between atoms: _106  and  _107
REMARK   42  A    between atoms: _110  and  _112
REMARK   43  A    between atoms: _112  and  _113
REMARK   44  A    between atoms: _112  and  _115
REMARK   45  A    between atoms: _115  and  _116
REMARK   46  A    between atoms: _122  and  _124
REMARK   47  A    between atoms: _124  and  _125
REMARK   48  A    between atoms: _127  and  _129
REMARK   49  A    between atoms: _129  and  _130
REMARK   50  A    between atoms: _132  and  _134
REMARK   51  A    between atoms: _134  and  _135
REMARK   52  A    between atoms: _138  and  _140
REMARK   53  A    between atoms: _140  and  _141
REMARK   54  A    between atoms: _140  and  _143
REMARK   55  A    between atoms: _143  and  _144
REMARK   56  A    between atoms: _144  and  _145
REMARK   57  A    between atoms: _145  and  _146
REMARK   58  A    between atoms: _146  and  _147
REMARK   59  A    between atoms: _151  and  _153
REMARK   60  A    between atoms: _153  and  _154
REMARK   61  A    between atoms: _153  and  _156
REMARK   62  A    between atoms: _156  and  _157
REMARK   63  A    between atoms: _157  and  _158
REMARK   64  A    between atoms: _160  and  _162
REMARK   65  A    between atoms: _162  and  _163
REMARK   66  A    between atoms: _162  and  _165
REMARK   67  A    between atoms: _165  and  _166
REMARK   68  A    between atoms: _171  and  _172
REMARK   69  A    between atoms: _174  and  _176
REMARK   70  A    between atoms: _176  and  _177
REMARK   71  A    between atoms: _176  and  _179
REMARK   72  A    between atoms: _179  and  _180
REMARK   73  A    between atoms: _183  and  _185
REMARK   74  A    between atoms: _185  and  _186
REMARK   75  A    between atoms: _185  and  _188
REMARK   76  A    between atoms: _188  and  _189
REMARK   77  A    between atoms: _195  and  _197
REMARK   78  A    between atoms: _197  and  _198
REMARK   79  A    between atoms: _197  and  _200
REMARK   80  A    between atoms: _200  and  _201
REMARK   81  A    between atoms: _206  and  _207
REMARK   82  A    between atoms: _209  and  _211
REMARK   83  A    between atoms: _211  and  _212
REMARK   84  A    between atoms: _214  and  _216
REMARK   85  A    between atoms: _216  and  _217
REMARK   86  A    between atoms: _219  and  _221
REMARK   87  A    between atoms: _221  and  _222
REMARK   88  A    between atoms: _221  and  _224
REMARK   89  A    between atoms: _224  and  _225
REMARK   90  A    between atoms: _235  and  _237
REMARK   91  A    between atoms: _237  and  _238
REMARK   92  A    between atoms: _237  and  _240
REMARK   93  A    between atoms: _240  and  _241
REMARK   94  A    between atoms: _246  and  _248
REMARK   95  A    between atoms: _248  and  _249
REMARK   96  A    between atoms: _248  and  _251
REMARK   97  A    between atoms: _251  and  _252
REMARK   98  A    between atoms: _257  and  _258
REMARK   99  A    between atoms: _260  and  _262
REMARK  100  A    between atoms: _262  and  _263
REMARK  101  A    between atoms: _262  and  _265
REMARK  102  A    between atoms: _265  and  _266
REMARK  103  A    between atoms: _271  and  _272
REMARK  104  A    between atoms: _274  and  _276
REMARK  105  A    between atoms: _276  and  _277
REMARK  106  A    between atoms: _276  and  _279
REMARK  107  A    between atoms: _279  and  _280
REMARK  108  A    between atoms: _280  and  _281
REMARK  109  A    between atoms: _281  and  _282
REMARK  110  A    between atoms: _291  and  _293
REMARK  111  A    between atoms: _293  and  _294
REMARK  112  A    between atoms: _293  and  _296
REMARK  113  A    between atoms: _296  and  _297
REMARK  114  A    between atoms: _297  and  _298
REMARK  115  A    between atoms: _298  and  _299
REMARK  116  A    between atoms: _299  and  _300
REMARK  117  A    between atoms: _304  and  _306
REMARK  118  A    between atoms: _306  and  _307
REMARK  119  A    between atoms: _306  and  _309
REMARK  120  A    between atoms: _309  and  _310
REMARK  121  A    between atoms: _310  and  _311
REMARK  122  A    between atoms: _314  and  _316
REMARK  123  A    between atoms: _316  and  _317
REMARK  124  A    between atoms: _316  and  _319
REMARK  125  A    between atoms: _322  and  _324
REMARK  126  A    between atoms: _324  and  _325
REMARK  127  A    between atoms: _324  and  _327
REMARK  128  A    between atoms: _327  and  _328
REMARK  129  A    between atoms: _338  and  _340
REMARK  130  A    between atoms: _340  and  _341
REMARK  131  A    between atoms: _340  and  _343
REMARK  132  A    between atoms: _343  and  _344
REMARK  133  A    between atoms: _344  and  _345
REMARK                            x       y       z     vdW  Elec       q    Type
REMARK                         _______ _______ _______ _____ _____    ______ ____
ROOT
ATOM      1  CA  TRP A   1       5.316  -5.050  18.221  0.00  0.00    +0.149 C 
ENDROOT
BRANCH   1   2
ATOM      2  C   TRP A   1       5.841  -3.600  18.270  0.00  0.00    +0.239 C 
ATOM      3  N   GLU A   2       5.397  -2.740  19.220  0.00  0.00    -0.298 N 
ATOM      4  H   GLU A   2       5.917  -1.839  19.245  0.00  0.00    +0.150 HD
ATOM      5  O   TRP A   1       6.693  -3.232  17.487  0.00  0.00    -0.274 OA
BRANCH   3   6
ATOM      6  CA  GLU A   2       4.324  -2.833  20.221  0.00  0.00    +0.137 C 
BRANCH   6   7
ATOM      7  C   GLU A   2       3.437  -1.572  20.009  0.00  0.00    +0.227 C 
ATOM      8  O   GLU A   2       3.967  -0.498  19.668  0.00  0.00    -0.286 OA
ENDBRANCH   6   7
BRANCH   6   9
ATOM      9  CB  GLU A   2       4.916  -2.923  21.658  0.00  0.00    +0.039 C 
BRANCH   9  10
ATOM     10  CG  GLU A   2       5.841  -1.720  21.992  0.00  0.00    +0.116 C 
BRANCH  10  11
ATOM     11  CD  GLU A   2       6.471  -1.861  23.390  0.00  0.00    +0.365 C 
ATOM     12  OE2 GLU A   2       5.767  -1.593  24.407  0.00  0.00    -0.246 OA
ATOM     13  OE1 GLU A   2       7.587  -2.268  23.490  0.00  0.00    -0.246 OA
ENDBRANCH  10  11
ENDBRANCH   9  10
ENDBRANCH   6   9
ENDBRANCH   3   6
ENDBRANCH   1   2
BRANCH   1  14
ATOM     14  N   TRP A   1       4.828  -5.191  16.854  0.00  0.00    -0.238 NA
ATOM     15  H   TRP A   1       5.482  -4.965  16.077  0.00  0.00    +0.142 HD
ENDBRANCH   1  14
BRANCH   1  16
ATOM     16  CB  TRP A   1       6.525  -5.998  18.568  0.00  0.00    +0.054 C 
BRANCH  16  17
ATOM     17  CG  TRP A   1       7.115  -5.660  19.928  0.00  0.00    -0.002 A 
ATOM     18  CD2 TRP A   1       6.753  -6.161  21.220  0.00  0.00    +0.013 A 
ATOM     19  CE2 TRP A   1       7.503  -5.431  22.184  0.00  0.00    +0.056 A 
ATOM     20  CZ2 TRP A   1       7.413  -5.709  23.585  0.00  0.00    +0.017 A 
ATOM     21  CH2 TRP A   1       6.507  -6.598  23.941  0.00  0.00    +0.001 A 
ATOM     22  CZ3 TRP A   1       5.724  -7.294  23.025  0.00  0.00    +0.000 A 
ATOM     23  NE1 TRP A   1       8.332  -4.577  21.524  0.00  0.00    -0.352 N 
ATOM     24  HE1 TRP A   1       9.011  -3.931  21.975  0.00  0.00    +0.166 HD
ATOM     25  CE3 TRP A   1       5.786  -7.068  21.674  0.00  0.00    +0.001 A 
ATOM     26  CD1 TRP A   1       8.135  -4.698  20.175  0.00  0.00    +0.068 A 
ENDBRANCH  16  17
ENDBRANCH   1  16
TORSDOF 9
REMARK  Name = ../refined-set-2016/3ary/3ary_pocket.pdb
REMARK  133 active torsions:
REMARK  status: ('A' for Active; 'I' for Inactive)
REMARK    1  A    between atoms: _1  and  _3
REMARK    2  A    between atoms: _3  and  _4
REMARK    3  A    between atoms: _3  and  _6
REMARK    4  A    between atoms: _6  and  _7
REMARK    5  A    between atoms: _17  and  _19
REMARK    6  A    between atoms: _19  and  _20
REMARK    7  A    between atoms: _19  and  _22
REMARK    8  A    between atoms: _22  and  _23
REMARK    9  A    between atoms: _29  and  _31
REMARK   10  A    between atoms: _31  and  _32
REMARK   11  A    between atoms: _31  and  _34
REMARK   12  A    between atoms: _34  and  _35
REMARK   13  A    between atoms: _37  and  _39
REMARK   14  A    between atoms: _39  and  _40
REMARK   15  A    between atoms: _39  and  _42
REMARK   16  A    between atoms: _45  and  _47
REMARK   17  A    between atoms: _47  and  _48
REMARK   18  A    between atoms: _47  and  _50
REMARK   19  A    between atoms: _50  and  _51
REMARK   20  A    between atoms: _53  and  _55
REMARK   21  A    between atoms: _55  and  _56
REMARK   22  A    between atoms: _55  and  _58
REMARK   23  A    between atoms: _61  and  _63
REMARK   24  A    between atoms: _63  and  _64
REMARK   25  A    between atoms: _66  and  _68
REMARK   26  A    between atoms: _68  and  _69
REMARK   27  A    between atoms: _68  and  _71
REMARK   28  A    between atoms: _71  and  _72
REMARK   29  A    between atoms: _82  and  _84
REMARK   30  A    between atoms: _84  and  _85
REMARK   31  A    between atoms: _84  and  _87
REMARK   32  A    between atoms: _87  and  _88
REMARK   33  A    between atoms: _91  and  _93
REMARK   34  A    between atoms: _93  and  _94
REMARK   35  A    between atoms: _93  and  _96
REMARK   36  A    between atoms: _96  and  _97
REMARK   37  A    between atoms: _100  and  _102
REMARK   38  A    between atoms: _102  and  _103
REMARK   39  A    between atoms: _102  and  _105
REMARK   40  A    between atoms: _105  and  _106
REMARK   41  A    between atoms: _106  and  _107
REMARK   42  A    between atoms: _110  and  _112
REMARK   43  A    between atoms: _112  and  _113
REMARK   44  A    between atoms: _112  and  _115
REMARK   45  A    between atoms: _115  and  _116
REMARK   46  A    between atoms: _122  and  _124
REMARK   47  A    between atoms: _124  and  _125
REMARK   48  A    between atoms: _127  and  _129
REMARK   49  A    between atoms: _129  and  _130
REMARK   50  A    between atoms: _132  and  _134
REMARK   51  A    between atoms: _134  and  _135
REMARK   52  A    between atoms: _138  and  _140
REMARK   53  A    between atoms: _140  and  _141
REMARK   54  A    between atoms: _140  and  _143
REMARK   55  A    between atoms: _143  and  _144
REMARK   56  A    between atoms: _144  and  _145
REMARK   57  A    between atoms: _145  and  _146
REMARK   58  A    between atoms: _146  and  _147
REMARK   59  A    between atoms: _151  and  _153
REMARK   60  A    between atoms: _153  and  _154
REMARK   61  A    between atoms: _153  and  _156
REMARK   62  A    between atoms: _156  and  _157
REMARK   63  A    between atoms: _157  and  _158
REMARK   64  A    between atoms: _160  and  _162
REMARK   65  A    between atoms: _162  and  _163
REMARK   66  A    between atoms: _162  and  _165
REMARK   67  A    between atoms: _165  and  _166
REMARK   68  A    between atoms: _171  and  _172
REMARK   69  A    between atoms: _174  and  _176
REMARK   70  A    between atoms: _176  and  _177
REMARK   71  A    between atoms: _176  and  _179
REMARK   72  A    between atoms: _179  and  _180
REMARK   73  A    between atoms: _183  and  _185
REMARK   74  A    between atoms: _185  and  _186
REMARK   75  A    between atoms: _185  and  _188
REMARK   76  A    between atoms: _188  and  _189
REMARK   77  A    between atoms: _195  and  _197
REMARK   78  A    between atoms: _197  and  _198
REMARK   79  A    between atoms: _197  and  _200
REMARK   80  A    between atoms: _200  and  _201
REMARK   81  A    between atoms: _206  and  _207
REMARK   82  A    between atoms: _209  and  _211
REMARK   83  A    between atoms: _211  and  _212
REMARK   84  A    between atoms: _214  and  _216
REMARK   85  A    between atoms: _216  and  _217
REMARK   86  A    between atoms: _219  and  _221
REMARK   87  A    between atoms: _221  and  _222
REMARK   88  A    between atoms: _221  and  _224
REMARK   89  A    between atoms: _224  and  _225
REMARK   90  A    between atoms: _235  and  _237
REMARK   91  A    between atoms: _237  and  _238
REMARK   92  A    between atoms: _237  and  _240
REMARK   93  A    between atoms: _240  and  _241
REMARK   94  A    between atoms: _246  and  _248
REMARK   95  A    between atoms: _248  and  _249
REMARK   96  A    between atoms: _248  and  _251
REMARK   97  A    between atoms: _251  and  _252
REMARK   98  A    between atoms: _257  and  _258
REMARK   99  A    between atoms: _260  and  _262
REMARK  100  A    between atoms: _262  and  _263
REMARK  101  A    between atoms: _262  and  _265
REMARK  102  A    between atoms: _265  and  _266
REMARK  103  A    between atoms: _271  and  _272
REMARK  104  A    between atoms: _274  and  _276
REMARK  105  A    between atoms: _276  and  _277
REMARK  106  A    between atoms: _276  and  _279
REMARK  107  A    between atoms: _279  and  _280
REMARK  108  A    between atoms: _280  and  _281
REMARK  109  A    between atoms: _281  and  _282
REMARK  110  A    between atoms: _291  and  _293
REMARK  111  A    between atoms: _293  and  _294
REMARK  112  A    between atoms: _293  and  _296
REMARK  113  A    between atoms: _296  and  _297
REMARK  114  A    between atoms: _297  and  _298
REMARK  115  A    between atoms: _298  and  _299
REMARK  116  A    between atoms: _299  and  _300
REMARK  117  A    between atoms: _304  and  _306
REMARK  118  A    between atoms: _306  and  _307
REMARK  119  A    between atoms: _306  and  _309
REMARK  120  A    between atoms: _309  and  _310
REMARK  121  A    between atoms: _310  and  _311
REMARK  122  A    between atoms: _314  and  _316
REMARK  123  A    between atoms: _316  and  _317
REMARK  124  A    between atoms: _316  and  _319
REMARK  125  A    between atoms: _322  and  _324
REMARK  126  A    between atoms: _324  and  _325
REMARK  127  A    between atoms: _324  and  _327
REMARK  128  A    between atoms: _327  and  _328
REMARK  129  A    between atoms: _338  and  _340
REMARK  130  A    between atoms: _340  and  _341
REMARK  131  A    between atoms: _340  and  _343
REMARK  132  A    between atoms: _343  and  _344
REMARK  133  A    between atoms: _344  and  _345
REMARK                            x       y       z     vdW  Elec       q    Type
REMARK                         _______ _______ _______ _____ _____    ______ ____
ROOT
ATOM      1  O   HOH     1       7.793 -10.061  20.012  0.00  0.00    +0.000 OA
ENDROOT
TORSDOF 0
REMARK  Name = ../refined-set-2016/3ary/3ary_pocket.pdb
REMARK  133 active torsions:
REMARK  status: ('A' for Active; 'I' for Inactive)
REMARK    1  A    between atoms: _1  and  _3
REMARK    2  A    between atoms: _3  and  _4
REMARK    3  A    between atoms: _3  and  _6
REMARK    4  A    between atoms: _6  and  _7
REMARK    5  A    between atoms: _17  and  _19
REMARK    6  A    between atoms: _19  and  _20
REMARK    7  A    between atoms: _19  and  _22
REMARK    8  A    between atoms: _22  and  _23
REMARK    9  A    between atoms: _29  and  _31
REMARK   10  A    between atoms: _31  and  _32
REMARK   11  A    between atoms: _31  and  _34
REMARK   12  A    between atoms: _34  and  _35
REMARK   13  A    between atoms: _37  and  _39
REMARK   14  A    between atoms: _39  and  _40
REMARK   15  A    between atoms: _39  and  _42
REMARK   16  A    between atoms: _45  and  _47
REMARK   17  A    between atoms: _47  and  _48
REMARK   18  A    between atoms: _47  and  _50
REMARK   19  A    between atoms: _50  and  _51
REMARK   20  A    between atoms: _53  and  _55
REMARK   21  A    between atoms: _55  and  _56
REMARK   22  A    between atoms: _55  and  _58
REMARK   23  A    between atoms: _61  and  _63
REMARK   24  A    between atoms: _63  and  _64
REMARK   25  A    between atoms: _66  and  _68
REMARK   26  A    between atoms: _68  and  _69
REMARK   27  A    between atoms: _68  and  _71
REMARK   28  A    between atoms: _71  and  _72
REMARK   29  A    between atoms: _82  and  _84
REMARK   30  A    between atoms: _84  and  _85
REMARK   31  A    between atoms: _84  and  _87
REMARK   32  A    between atoms: _87  and  _88
REMARK   33  A    between atoms: _91  and  _93
REMARK   34  A    between atoms: _93  and  _94
REMARK   35  A    between atoms: _93  and  _96
REMARK   36  A    between atoms: _96  and  _97
REMARK   37  A    between atoms: _100  and  _102
REMARK   38  A    between atoms: _102  and  _103
REMARK   39  A    between atoms: _102  and  _105
REMARK   40  A    between atoms: _105  and  _106
REMARK   41  A    between atoms: _106  and  _107
REMARK   42  A    between atoms: _110  and  _112
REMARK   43  A    between atoms: _112  and  _113
REMARK   44  A    between atoms: _112  and  _115
REMARK   45  A    between atoms: _115  and  _116
REMARK   46  A    between atoms: _122  and  _124
REMARK   47  A    between atoms: _124  and  _125
REMARK   48  A    between atoms: _127  and  _129
REMARK   49  A    between atoms: _129  and  _130
REMARK   50  A    between atoms: _132  and  _134
REMARK   51  A    between atoms: _134  and  _135
REMARK   52  A    between atoms: _138  and  _140
REMARK   53  A    between atoms: _140  and  _141
REMARK   54  A    between atoms: _140  and  _143
REMARK   55  A    between atoms: _143  and  _144
REMARK   56  A    between atoms: _144  and  _145
REMARK   57  A    between atoms: _145  and  _146
REMARK   58  A    between atoms: _146  and  _147
REMARK   59  A    between atoms: _151  and  _153
REMARK   60  A    between atoms: _153  and  _154
REMARK   61  A    between atoms: _153  and  _156
REMARK   62  A    between atoms: _156  and  _157
REMARK   63  A    between atoms: _157  and  _158
REMARK   64  A    between atoms: _160  and  _162
REMARK   65  A    between atoms: _162  and  _163
REMARK   66  A    between atoms: _162  and  _165
REMARK   67  A    between atoms: _165  and  _166
REMARK   68  A    between atoms: _171  and  _172
REMARK   69  A    between atoms: _174  and  _176
REMARK   70  A    between atoms: _176  and  _177
REMARK   71  A    between atoms: _176  and  _179
REMARK   72  A    between atoms: _179  and  _180
REMARK   73  A    between atoms: _183  and  _185
REMARK   74  A    between atoms: _185  and  _186
REMARK   75  A    between atoms: _185  and  _188
REMARK   76  A    between atoms: _188  and  _189
REMARK   77  A    between atoms: _195  and  _197
REMARK   78  A    between atoms: _197  and  _198
REMARK   79  A    between atoms: _197  and  _200
REMARK   80  A    between atoms: _200  and  _201
REMARK   81  A    between atoms: _206  and  _207
REMARK   82  A    between atoms: _209  and  _211
REMARK   83  A    between atoms: _211  and  _212
REMARK   84  A    between atoms: _214  and  _216
REMARK   85  A    between atoms: _216  and  _217
REMARK   86  A    between atoms: _219  and  _221
REMARK   87  A    between atoms: _221  and  _222
REMARK   88  A    between atoms: _221  and  _224
REMARK   89  A    between atoms: _224  and  _225
REMARK   90  A    between atoms: _235  and  _237
REMARK   91  A    between atoms: _237  and  _238
REMARK   92  A    between atoms: _237  and  _240
REMARK   93  A    between atoms: _240  and  _241
REMARK   94  A    between atoms: _246  and  _248
REMARK   95  A    between atoms: _248  and  _249
REMARK   96  A    between atoms: _248  and  _251
REMARK   97  A    between atoms: _251  and  _252
REMARK   98  A    between atoms: _257  and  _258
REMARK   99  A    between atoms: _260  and  _262
REMARK  100  A    between atoms: _262  and  _263
REMARK  101  A    between atoms: _262  and  _265
REMARK  102  A    between atoms: _265  and  _266
REMARK  103  A    between atoms: _271  and  _272
REMARK  104  A    between atoms: _274  and  _276
REMARK  105  A    between atoms: _276  and  _277
REMARK  106  A    between atoms: _276  and  _279
REMARK  107  A    between atoms: _279  and  _280
REMARK  108  A    between atoms: _280  and  _281
REMARK  109  A    between atoms: _281  and  _282
REMARK  110  A    between atoms: _291  and  _293
REMARK  111  A    between atoms: _293  and  _294
REMARK  112  A    between atoms: _293  and  _296
REMARK  113  A    between atoms: _296  and  _297
REMARK  114  A    between atoms: _297  and  _298
REMARK  115  A    between atoms: _298  and  _299
REMARK  116  A    between atoms: _299  and  _300
REMARK  117  A    between atoms: _304  and  _306
REMARK  118  A    between atoms: _306  and  _307
REMARK  119  A    between atoms: _306  and  _309
REMARK  120  A    between atoms: _309  and  _310
REMARK  121  A    between atoms: _310  and  _311
REMARK  122  A    between atoms: _314  and  _316
REMARK  123  A    between atoms: _316  and  _317
REMARK  124  A    between atoms: _316  and  _319
REMARK  125  A    between atoms: _322  and  _324
REMARK  126  A    between atoms: _324  and  _325
REMARK  127  A    between atoms: _324  and  _327
REMARK  128  A    between atoms: _327  and  _328
REMARK  129  A    between atoms: _338  and  _340
REMARK  130  A    between atoms: _340  and  _341
REMARK  131  A    between atoms: _340  and  _343
REMARK  132  A    between atoms: _343  and  _344
REMARK  133  A    between atoms: _344  and  _345
REMARK                            x       y       z     vdW  Elec       q    Type
REMARK                         _______ _______ _______ _____ _____    ______ ____
ROOT
ATOM      1  O   HOH     1      23.653 -16.754  24.366  0.00  0.00    +0.000 OA
ENDROOT
TORSDOF 0
REMARK  Name = ../refined-set-2016/3ary/3ary_pocket.pdb
REMARK  133 active torsions:
REMARK  status: ('A' for Active; 'I' for Inactive)
REMARK    1  A    between atoms: _1  and  _3
REMARK    2  A    between atoms: _3  and  _4
REMARK    3  A    between atoms: _3  and  _6
REMARK    4  A    between atoms: _6  and  _7
REMARK    5  A    between atoms: _17  and  _19
REMARK    6  A    between atoms: _19  and  _20
REMARK    7  A    between atoms: _19  and  _22
REMARK    8  A    between atoms: _22  and  _23
REMARK    9  A    between atoms: _29  and  _31
REMARK   10  A    between atoms: _31  and  _32
REMARK   11  A    between atoms: _31  and  _34
REMARK   12  A    between atoms: _34  and  _35
REMARK   13  A    between atoms: _37  and  _39
REMARK   14  A    between atoms: _39  and  _40
REMARK   15  A    between atoms: _39  and  _42
REMARK   16  A    between atoms: _45  and  _47
REMARK   17  A    between atoms: _47  and  _48
REMARK   18  A    between atoms: _47  and  _50
REMARK   19  A    between atoms: _50  and  _51
REMARK   20  A    between atoms: _53  and  _55
REMARK   21  A    between atoms: _55  and  _56
REMARK   22  A    between atoms: _55  and  _58
REMARK   23  A    between atoms: _61  and  _63
REMARK   24  A    between atoms: _63  and  _64
REMARK   25  A    between atoms: _66  and  _68
REMARK   26  A    between atoms: _68  and  _69
REMARK   27  A    between atoms: _68  and  _71
REMARK   28  A    between atoms: _71  and  _72
REMARK   29  A    between atoms: _82  and  _84
REMARK   30  A    between atoms: _84  and  _85
REMARK   31  A    between atoms: _84  and  _87
REMARK   32  A    between atoms: _87  and  _88
REMARK   33  A    between atoms: _91  and  _93
REMARK   34  A    between atoms: _93  and  _94
REMARK   35  A    between atoms: _93  and  _96
REMARK   36  A    between atoms: _96  and  _97
REMARK   37  A    between atoms: _100  and  _102
REMARK   38  A    between atoms: _102  and  _103
REMARK   39  A    between atoms: _102  and  _105
REMARK   40  A    between atoms: _105  and  _106
REMARK   41  A    between atoms: _106  and  _107
REMARK   42  A    between atoms: _110  and  _112
REMARK   43  A    between atoms: _112  and  _113
REMARK   44  A    between atoms: _112  and  _115
REMARK   45  A    between atoms: _115  and  _116
REMARK   46  A    between atoms: _122  and  _124
REMARK   47  A    between atoms: _124  and  _125
REMARK   48  A    between atoms: _127  and  _129
REMARK   49  A    between atoms: _129  and  _130
REMARK   50  A    between atoms: _132  and  _134
REMARK   51  A    between atoms: _134  and  _135
REMARK   52  A    between atoms: _138  and  _140
REMARK   53  A    between atoms: _140  and  _141
REMARK   54  A    between atoms: _140  and  _143
REMARK   55  A    between atoms: _143  and  _144
REMARK   56  A    between atoms: _144  and  _145
REMARK   57  A    between atoms: _145  and  _146
REMARK   58  A    between atoms: _146  and  _147
REMARK   59  A    between atoms: _151  and  _153
REMARK   60  A    between atoms: _153  and  _154
REMARK   61  A    between atoms: _153  and  _156
REMARK   62  A    between atoms: _156  and  _157
REMARK   63  A    between atoms: _157  and  _158
REMARK   64  A    between atoms: _160  and  _162
REMARK   65  A    between atoms: _162  and  _163
REMARK   66  A    between atoms: _162  and  _165
REMARK   67  A    between atoms: _165  and  _166
REMARK   68  A    between atoms: _171  and  _172
REMARK   69  A    between atoms: _174  and  _176
REMARK   70  A    between atoms: _176  and  _177
REMARK   71  A    between atoms: _176  and  _179
REMARK   72  A    between atoms: _179  and  _180
REMARK   73  A    between atoms: _183  and  _185
REMARK   74  A    between atoms: _185  and  _186
REMARK   75  A    between atoms: _185  and  _188
REMARK   76  A    between atoms: _188  and  _189
REMARK   77  A    between atoms: _195  and  _197
REMARK   78  A    between atoms: _197  and  _198
REMARK   79  A    between atoms: _197  and  _200
REMARK   80  A    between atoms: _200  and  _201
REMARK   81  A    between atoms: _206  and  _207
REMARK   82  A    between atoms: _209  and  _211
REMARK   83  A    between atoms: _211  and  _212
REMARK   84  A    between atoms: _214  and  _216
REMARK   85  A    between atoms: _216  and  _217
REMARK   86  A    between atoms: _219  and  _221
REMARK   87  A    between atoms: _221  and  _222
REMARK   88  A    between atoms: _221  and  _224
REMARK   89  A    between atoms: _224  and  _225
REMARK   90  A    between atoms: _235  and  _237
REMARK   91  A    between atoms: _237  and  _238
REMARK   92  A    between atoms: _237  and  _240
REMARK   93  A    between atoms: _240  and  _241
REMARK   94  A    between atoms: _246  and  _248
REMARK   95  A    between atoms: _248  and  _249
REMARK   96  A    between atoms: _248  and  _251
REMARK   97  A    between atoms: _251  and  _252
REMARK   98  A    between atoms: _257  and  _258
REMARK   99  A    between atoms: _260  and  _262
REMARK  100  A    between atoms: _262  and  _263
REMARK  101  A    between atoms: _262  and  _265
REMARK  102  A    between atoms: _265  and  _266
REMARK  103  A    between atoms: _271  and  _272
REMARK  104  A    between atoms: _274  and  _276
REMARK  105  A    between atoms: _276  and  _277
REMARK  106  A    between atoms: _276  and  _279
REMARK  107  A    between atoms: _279  and  _280
REMARK  108  A    between atoms: _280  and  _281
REMARK  109  A    between atoms: _281  and  _282
REMARK  110  A    between atoms: _291  and  _293
REMARK  111  A    between atoms: _293  and  _294
REMARK  112  A    between atoms: _293  and  _296
REMARK  113  A    between atoms: _296  and  _297
REMARK  114  A    between atoms: _297  and  _298
REMARK  115  A    between atoms: _298  and  _299
REMARK  116  A    between atoms: _299  and  _300
REMARK  117  A    between atoms: _304  and  _306
REMARK  118  A    between atoms: _306  and  _307
REMARK  119  A    between atoms: _306  and  _309
REMARK  120  A    between atoms: _309  and  _310
REMARK  121  A    between atoms: _310  and  _311
REMARK  122  A    between atoms: _314  and  _316
REMARK  123  A    between atoms: _316  and  _317
REMARK  124  A    between atoms: _316  and  _319
REMARK  125  A    between atoms: _322  and  _324
REMARK  126  A    between atoms: _324  and  _325
REMARK  127  A    between atoms: _324  and  _327
REMARK  128  A    between atoms: _327  and  _328
REMARK  129  A    between atoms: _338  and  _340
REMARK  130  A    between atoms: _340  and  _341
REMARK  131  A    between atoms: _340  and  _343
REMARK  132  A    between atoms: _343  and  _344
REMARK  133  A    between atoms: _344  and  _345
REMARK                            x       y       z     vdW  Elec       q    Type
REMARK                         _______ _______ _______ _____ _____    ______ ____
ROOT
ATOM      1  O   HOH     1      18.712  -7.776  28.634  0.00  0.00    +0.000 OA
ENDROOT
TORSDOF 0
REMARK  Name = ../refined-set-2016/3ary/3ary_pocket.pdb
REMARK  133 active torsions:
REMARK  status: ('A' for Active; 'I' for Inactive)
REMARK    1  A    between atoms: _1  and  _3
REMARK    2  A    between atoms: _3  and  _4
REMARK    3  A    between atoms: _3  and  _6
REMARK    4  A    between atoms: _6  and  _7
REMARK    5  A    between atoms: _17  and  _19
REMARK    6  A    between atoms: _19  and  _20
REMARK    7  A    between atoms: _19  and  _22
REMARK    8  A    between atoms: _22  and  _23
REMARK    9  A    between atoms: _29  and  _31
REMARK   10  A    between atoms: _31  and  _32
REMARK   11  A    between atoms: _31  and  _34
REMARK   12  A    between atoms: _34  and  _35
REMARK   13  A    between atoms: _37  and  _39
REMARK   14  A    between atoms: _39  and  _40
REMARK   15  A    between atoms: _39  and  _42
REMARK   16  A    between atoms: _45  and  _47
REMARK   17  A    between atoms: _47  and  _48
REMARK   18  A    between atoms: _47  and  _50
REMARK   19  A    between atoms: _50  and  _51
REMARK   20  A    between atoms: _53  and  _55
REMARK   21  A    between atoms: _55  and  _56
REMARK   22  A    between atoms: _55  and  _58
REMARK   23  A    between atoms: _61  and  _63
REMARK   24  A    between atoms: _63  and  _64
REMARK   25  A    between atoms: _66  and  _68
REMARK   26  A    between atoms: _68  and  _69
REMARK   27  A    between atoms: _68  and  _71
REMARK   28  A    between atoms: _71  and  _72
REMARK   29  A    between atoms: _82  and  _84
REMARK   30  A    between atoms: _84  and  _85
REMARK   31  A    between atoms: _84  and  _87
REMARK   32  A    between atoms: _87  and  _88
REMARK   33  A    between atoms: _91  and  _93
REMARK   34  A    between atoms: _93  and  _94
REMARK   35  A    between atoms: _93  and  _96
REMARK   36  A    between atoms: _96  and  _97
REMARK   37  A    between atoms: _100  and  _102
REMARK   38  A    between atoms: _102  and  _103
REMARK   39  A    between atoms: _102  and  _105
REMARK   40  A    between atoms: _105  and  _106
REMARK   41  A    between atoms: _106  and  _107
REMARK   42  A    between atoms: _110  and  _112
REMARK   43  A    between atoms: _112  and  _113
REMARK   44  A    between atoms: _112  and  _115
REMARK   45  A    between atoms: _115  and  _116
REMARK   46  A    between atoms: _122  and  _124
REMARK   47  A    between atoms: _124  and  _125
REMARK   48  A    between atoms: _127  and  _129
REMARK   49  A    between atoms: _129  and  _130
REMARK   50  A    between atoms: _132  and  _134
REMARK   51  A    between atoms: _134  and  _135
REMARK   52  A    between atoms: _138  and  _140
REMARK   53  A    between atoms: _140  and  _141
REMARK   54  A    between atoms: _140  and  _143
REMARK   55  A    between atoms: _143  and  _144
REMARK   56  A    between atoms: _144  and  _145
REMARK   57  A    between atoms: _145  and  _146
REMARK   58  A    between atoms: _146  and  _147
REMARK   59  A    between atoms: _151  and  _153
REMARK   60  A    between atoms: _153  and  _154
REMARK   61  A    between atoms: _153  and  _156
REMARK   62  A    between atoms: _156  and  _157
REMARK   63  A    between atoms: _157  and  _158
REMARK   64  A    between atoms: _160  and  _162
REMARK   65  A    between atoms: _162  and  _163
REMARK   66  A    between atoms: _162  and  _165
REMARK   67  A    between atoms: _165  and  _166
REMARK   68  A    between atoms: _171  and  _172
REMARK   69  A    between atoms: _174  and  _176
REMARK   70  A    between atoms: _176  and  _177
REMARK   71  A    between atoms: _176  and  _179
REMARK   72  A    between atoms: _179  and  _180
REMARK   73  A    between atoms: _183  and  _185
REMARK   74  A    between atoms: _185  and  _186
REMARK   75  A    between atoms: _185  and  _188
REMARK   76  A    between atoms: _188  and  _189
REMARK   77  A    between atoms: _195  and  _197
REMARK   78  A    between atoms: _197  and  _198
REMARK   79  A    between atoms: _197  and  _200
REMARK   80  A    between atoms: _200  and  _201
REMARK   81  A    between atoms: _206  and  _207
REMARK   82  A    between atoms: _209  and  _211
REMARK   83  A    between atoms: _211  and  _212
REMARK   84  A    between atoms: _214  and  _216
REMARK   85  A    between atoms: _216  and  _217
REMARK   86  A    between atoms: _219  and  _221
REMARK   87  A    between atoms: _221  and  _222
REMARK   88  A    between atoms: _221  and  _224
REMARK   89  A    between atoms: _224  and  _225
REMARK   90  A    between atoms: _235  and  _237
REMARK   91  A    between atoms: _237  and  _238
REMARK   92  A    between atoms: _237  and  _240
REMARK   93  A    between atoms: _240  and  _241
REMARK   94  A    between atoms: _246  and  _248
REMARK   95  A    between atoms: _248  and  _249
REMARK   96  A    between atoms: _248  and  _251
REMARK   97  A    between atoms: _251  and  _252
REMARK   98  A    between atoms: _257  and  _258
REMARK   99  A    between atoms: _260  and  _262
REMARK  100  A    between atoms: _262  and  _263
REMARK  101  A    between atoms: _262  and  _265
REMARK  102  A    between atoms: _265  and  _266
REMARK  103  A    between atoms: _271  and  _272
REMARK  104  A    between atoms: _274  and  _276
REMARK  105  A    between atoms: _276  and  _277
REMARK  106  A    between atoms: _276  and  _279
REMARK  107  A    between atoms: _279  and  _280
REMARK  108  A    between atoms: _280  and  _281
REMARK  109  A    between atoms: _281  and  _282
REMARK  110  A    between atoms: _291  and  _293
REMARK  111  A    between atoms: _293  and  _294
REMARK  112  A    between atoms: _293  and  _296
REMARK  113  A    between atoms: _296  and  _297
REMARK  114  A    between atoms: _297  and  _298
REMARK  115  A    between atoms: _298  and  _299
REMARK  116  A    between atoms: _299  and  _300
REMARK  117  A    between atoms: _304  and  _306
REMARK  118  A    between atoms: _306  and  _307
REMARK  119  A    between atoms: _306  and  _309
REMARK  120  A    between atoms: _309  and  _310
REMARK  121  A    between atoms: _310  and  _311
REMARK  122  A    between atoms: _314  and  _316
REMARK  123  A    between atoms: _316  and  _317
REMARK  124  A    between atoms: _316  and  _319
REMARK  125  A    between atoms: _322  and  _324
REMARK  126  A    between atoms: _324  and  _325
REMARK  127  A    between atoms: _324  and  _327
REMARK  128  A    between atoms: _327  and  _328
REMARK  129  A    between atoms: _338  and  _340
REMARK  130  A    between atoms: _340  and  _341
REMARK  131  A    between atoms: _340  and  _343
REMARK  132  A    between atoms: _343  and  _344
REMARK  133  A    between atoms: _344  and  _345
REMARK                            x       y       z     vdW  Elec       q    Type
REMARK                         _______ _______ _______ _____ _____    ______ ____
ROOT
ATOM      1  O   HOH     1       9.465 -10.532  23.993  0.00  0.00    +0.000 OA
ENDROOT
TORSDOF 0
REMARK  Name = ../refined-set-2016/3ary/3ary_pocket.pdb
REMARK  133 active torsions:
REMARK  status: ('A' for Active; 'I' for Inactive)
REMARK    1  A    between atoms: _1  and  _3
REMARK    2  A    between atoms: _3  and  _4
REMARK    3  A    between atoms: _3  and  _6
REMARK    4  A    between atoms: _6  and  _7
REMARK    5  A    between atoms: _17  and  _19
REMARK    6  A    between atoms: _19  and  _20
REMARK    7  A    between atoms: _19  and  _22
REMARK    8  A    between atoms: _22  and  _23
REMARK    9  A    between atoms: _29  and  _31
REMARK   10  A    between atoms: _31  and  _32
REMARK   11  A    between atoms: _31  and  _34
REMARK   12  A    between atoms: _34  and  _35
REMARK   13  A    between atoms: _37  and  _39
REMARK   14  A    between atoms: _39  and  _40
REMARK   15  A    between atoms: _39  and  _42
REMARK   16  A    between atoms: _45  and  _47
REMARK   17  A    between atoms: _47  and  _48
REMARK   18  A    between atoms: _47  and  _50
REMARK   19  A    between atoms: _50  and  _51
REMARK   20  A    between atoms: _53  and  _55
REMARK   21  A    between atoms: _55  and  _56
REMARK   22  A    between atoms: _55  and  _58
REMARK   23  A    between atoms: _61  and  _63
REMARK   24  A    between atoms: _63  and  _64
REMARK   25  A    between atoms: _66  and  _68
REMARK   26  A    between atoms: _68  and  _69
REMARK   27  A    between atoms: _68  and  _71
REMARK   28  A    between atoms: _71  and  _72
REMARK   29  A    between atoms: _82  and  _84
REMARK   30  A    between atoms: _84  and  _85
REMARK   31  A    between atoms: _84  and  _87
REMARK   32  A    between atoms: _87  and  _88
REMARK   33  A    between atoms: _91  and  _93
REMARK   34  A    between atoms: _93  and  _94
REMARK   35  A    between atoms: _93  and  _96
REMARK   36  A    between atoms: _96  and  _97
REMARK   37  A    between atoms: _100  and  _102
REMARK   38  A    between atoms: _102  and  _103
REMARK   39  A    between atoms: _102  and  _105
REMARK   40  A    between atoms: _105  and  _106
REMARK   41  A    between atoms: _106  and  _107
REMARK   42  A    between atoms: _110  and  _112
REMARK   43  A    between atoms: _112  and  _113
REMARK   44  A    between atoms: _112  and  _115
REMARK   45  A    between atoms: _115  and  _116
REMARK   46  A    between atoms: _122  and  _124
REMARK   47  A    between atoms: _124  and  _125
REMARK   48  A    between atoms: _127  and  _129
REMARK   49  A    between atoms: _129  and  _130
REMARK   50  A    between atoms: _132  and  _134
REMARK   51  A    between atoms: _134  and  _135
REMARK   52  A    between atoms: _138  and  _140
REMARK   53  A    between atoms: _140  and  _141
REMARK   54  A    between atoms: _140  and  _143
REMARK   55  A    between atoms: _143  and  _144
REMARK   56  A    between atoms: _144  and  _145
REMARK   57  A    between atoms: _145  and  _146
REMARK   58  A    between atoms: _146  and  _147
REMARK   59  A    between atoms: _151  and  _153
REMARK   60  A    between atoms: _153  and  _154
REMARK   61  A    between atoms: _153  and  _156
REMARK   62  A    between atoms: _156  and  _157
REMARK   63  A    between atoms: _157  and  _158
REMARK   64  A    between atoms: _160  and  _162
REMARK   65  A    between atoms: _162  and  _163
REMARK   66  A    between atoms: _162  and  _165
REMARK   67  A    between atoms: _165  and  _166
REMARK   68  A    between atoms: _171  and  _172
REMARK   69  A    between atoms: _174  and  _176
REMARK   70  A    between atoms: _176  and  _177
REMARK   71  A    between atoms: _176  and  _179
REMARK   72  A    between atoms: _179  and  _180
REMARK   73  A    between atoms: _183  and  _185
REMARK   74  A    between atoms: _185  and  _186
REMARK   75  A    between atoms: _185  and  _188
REMARK   76  A    between atoms: _188  and  _189
REMARK   77  A    between atoms: _195  and  _197
REMARK   78  A    between atoms: _197  and  _198
REMARK   79  A    between atoms: _197  and  _200
REMARK   80  A    between atoms: _200  and  _201
REMARK   81  A    between atoms: _206  and  _207
REMARK   82  A    between atoms: _209  and  _211
REMARK   83  A    between atoms: _211  and  _212
REMARK   84  A    between atoms: _214  and  _216
REMARK   85  A    between atoms: _216  and  _217
REMARK   86  A    between atoms: _219  and  _221
REMARK   87  A    between atoms: _221  and  _222
REMARK   88  A    between atoms: _221  and  _224
REMARK   89  A    between atoms: _224  and  _225
REMARK   90  A    between atoms: _235  and  _237
REMARK   91  A    between atoms: _237  and  _238
REMARK   92  A    between atoms: _237  and  _240
REMARK   93  A    between atoms: _240  and  _241
REMARK   94  A    between atoms: _246  and  _248
REMARK   95  A    between atoms: _248  and  _249
REMARK   96  A    between atoms: _248  and  _251
REMARK   97  A    between atoms: _251  and  _252
REMARK   98  A    between atoms: _257  and  _258
REMARK   99  A    between atoms: _260  and  _262
REMARK  100  A    between atoms: _262  and  _263
REMARK  101  A    between atoms: _262  and  _265
REMARK  102  A    between atoms: _265  and  _266
REMARK  103  A    between atoms: _271  and  _272
REMARK  104  A    between atoms: _274  and  _276
REMARK  105  A    between atoms: _276  and  _277
REMARK  106  A    between atoms: _276  and  _279
REMARK  107  A    between atoms: _279  and  _280
REMARK  108  A    between atoms: _280  and  _281
REMARK  109  A    between atoms: _281  and  _282
REMARK  110  A    between atoms: _291  and  _293
REMARK  111  A    between atoms: _293  and  _294
REMARK  112  A    between atoms: _293  and  _296
REMARK  113  A    between atoms: _296  and  _297
REMARK  114  A    between atoms: _297  and  _298
REMARK  115  A    between atoms: _298  and  _299
REMARK  116  A    between atoms: _299  and  _300
REMARK  117  A    between atoms: _304  and  _306
REMARK  118  A    between atoms: _306  and  _307
REMARK  119  A    between atoms: _306  and  _309
REMARK  120  A    between atoms: _309  and  _310
REMARK  121  A    between atoms: _310  and  _311
REMARK  122  A    between atoms: _314  and  _316
REMARK  123  A    between atoms: _316  and  _317
REMARK  124  A    between atoms: _316  and  _319
REMARK  125  A    between atoms: _322  and  _324
REMARK  126  A    between atoms: _324  and  _325
REMARK  127  A    between atoms: _324  and  _327
REMARK  128  A    between atoms: _327  and  _328
REMARK  129  A    between atoms: _338  and  _340
REMARK  130  A    between atoms: _340  and  _341
REMARK  131  A    between atoms: _340  and  _343
REMARK  132  A    between atoms: _343  and  _344
REMARK  133  A    between atoms: _344  and  _345
REMARK                            x       y       z     vdW  Elec       q    Type
REMARK                         _______ _______ _______ _____ _____    ______ ____
ROOT
ATOM      1  O   HOH     1      25.642 -15.428  25.272  0.00  0.00    +0.000 OA
ENDROOT
TORSDOF 0
REMARK  Name = ../refined-set-2016/3ary/3ary_pocket.pdb
REMARK  133 active torsions:
REMARK  status: ('A' for Active; 'I' for Inactive)
REMARK    1  A    between atoms: _1  and  _3
REMARK    2  A    between atoms: _3  and  _4
REMARK    3  A    between atoms: _3  and  _6
REMARK    4  A    between atoms: _6  and  _7
REMARK    5  A    between atoms: _17  and  _19
REMARK    6  A    between atoms: _19  and  _20
REMARK    7  A    between atoms: _19  and  _22
REMARK    8  A    between atoms: _22  and  _23
REMARK    9  A    between atoms: _29  and  _31
REMARK   10  A    between atoms: _31  and  _32
REMARK   11  A    between atoms: _31  and  _34
REMARK   12  A    between atoms: _34  and  _35
REMARK   13  A    between atoms: _37  and  _39
REMARK   14  A    between atoms: _39  and  _40
REMARK   15  A    between atoms: _39  and  _42
REMARK   16  A    between atoms: _45  and  _47
REMARK   17  A    between atoms: _47  and  _48
REMARK   18  A    between atoms: _47  and  _50
REMARK   19  A    between atoms: _50  and  _51
REMARK   20  A    between atoms: _53  and  _55
REMARK   21  A    between atoms: _55  and  _56
REMARK   22  A    between atoms: _55  and  _58
REMARK   23  A    between atoms: _61  and  _63
REMARK   24  A    between atoms: _63  and  _64
REMARK   25  A    between atoms: _66  and  _68
REMARK   26  A    between atoms: _68  and  _69
REMARK   27  A    between atoms: _68  and  _71
REMARK   28  A    between atoms: _71  and  _72
REMARK   29  A    between atoms: _82  and  _84
REMARK   30  A    between atoms: _84  and  _85
REMARK   31  A    between atoms: _84  and  _87
REMARK   32  A    between atoms: _87  and  _88
REMARK   33  A    between atoms: _91  and  _93
REMARK   34  A    between atoms: _93  and  _94
REMARK   35  A    between atoms: _93  and  _96
REMARK   36  A    between atoms: _96  and  _97
REMARK   37  A    between atoms: _100  and  _102
REMARK   38  A    between atoms: _102  and  _103
REMARK   39  A    between atoms: _102  and  _105
REMARK   40  A    between atoms: _105  and  _106
REMARK   41  A    between atoms: _106  and  _107
REMARK   42  A    between atoms: _110  and  _112
REMARK   43  A    between atoms: _112  and  _113
REMARK   44  A    between atoms: _112  and  _115
REMARK   45  A    between atoms: _115  and  _116
REMARK   46  A    between atoms: _122  and  _124
REMARK   47  A    between atoms: _124  and  _125
REMARK   48  A    between atoms: _127  and  _129
REMARK   49  A    between atoms: _129  and  _130
REMARK   50  A    between atoms: _132  and  _134
REMARK   51  A    between atoms: _134  and  _135
REMARK   52  A    between atoms: _138  and  _140
REMARK   53  A    between atoms: _140  and  _141
REMARK   54  A    between atoms: _140  and  _143
REMARK   55  A    between atoms: _143  and  _144
REMARK   56  A    between atoms: _144  and  _145
REMARK   57  A    between atoms: _145  and  _146
REMARK   58  A    between atoms: _146  and  _147
REMARK   59  A    between atoms: _151  and  _153
REMARK   60  A    between atoms: _153  and  _154
REMARK   61  A    between atoms: _153  and  _156
REMARK   62  A    between atoms: _156  and  _157
REMARK   63  A    between atoms: _157  and  _158
REMARK   64  A    between atoms: _160  and  _162
REMARK   65  A    between atoms: _162  and  _163
REMARK   66  A    between atoms: _162  and  _165
REMARK   67  A    between atoms: _165  and  _166
REMARK   68  A    between atoms: _171  and  _172
REMARK   69  A    between atoms: _174  and  _176
REMARK   70  A    between atoms: _176  and  _177
REMARK   71  A    between atoms: _176  and  _179
REMARK   72  A    between atoms: _179  and  _180
REMARK   73  A    between atoms: _183  and  _185
REMARK   74  A    between atoms: _185  and  _186
REMARK   75  A    between atoms: _185  and  _188
REMARK   76  A    between atoms: _188  and  _189
REMARK   77  A    between atoms: _195  and  _197
REMARK   78  A    between atoms: _197  and  _198
REMARK   79  A    between atoms: _197  and  _200
REMARK   80  A    between atoms: _200  and  _201
REMARK   81  A    between atoms: _206  and  _207
REMARK   82  A    between atoms: _209  and  _211
REMARK   83  A    between atoms: _211  and  _212
REMARK   84  A    between atoms: _214  and  _216
REMARK   85  A    between atoms: _216  and  _217
REMARK   86  A    between atoms: _219  and  _221
REMARK   87  A    between atoms: _221  and  _222
REMARK   88  A    between atoms: _221  and  _224
REMARK   89  A    between atoms: _224  and  _225
REMARK   90  A    between atoms: _235  and  _237
REMARK   91  A    between atoms: _237  and  _238
REMARK   92  A    between atoms: _237  and  _240
REMARK   93  A    between atoms: _240  and  _241
REMARK   94  A    between atoms: _246  and  _248
REMARK   95  A    between atoms: _248  and  _249
REMARK   96  A    between atoms: _248  and  _251
REMARK   97  A    between atoms: _251  and  _252
REMARK   98  A    between atoms: _257  and  _258
REMARK   99  A    between atoms: _260  and  _262
REMARK  100  A    between atoms: _262  and  _263
REMARK  101  A    between atoms: _262  and  _265
REMARK  102  A    between atoms: _265  and  _266
REMARK  103  A    between atoms: _271  and  _272
REMARK  104  A    between atoms: _274  and  _276
REMARK  105  A    between atoms: _276  and  _277
REMARK  106  A    between atoms: _276  and  _279
REMARK  107  A    between atoms: _279  and  _280
REMARK  108  A    between atoms: _280  and  _281
REMARK  109  A    between atoms: _281  and  _282
REMARK  110  A    between atoms: _291  and  _293
REMARK  111  A    between atoms: _293  and  _294
REMARK  112  A    between atoms: _293  and  _296
REMARK  113  A    between atoms: _296  and  _297
REMARK  114  A    between atoms: _297  and  _298
REMARK  115  A    between atoms: _298  and  _299
REMARK  116  A    between atoms: _299  and  _300
REMARK  117  A    between atoms: _304  and  _306
REMARK  118  A    between atoms: _306  and  _307
REMARK  119  A    between atoms: _306  and  _309
REMARK  120  A    between atoms: _309  and  _310
REMARK  121  A    between atoms: _310  and  _311
REMARK  122  A    between atoms: _314  and  _316
REMARK  123  A    between atoms: _316  and  _317
REMARK  124  A    between atoms: _316  and  _319
REMARK  125  A    between atoms: _322  and  _324
REMARK  126  A    between atoms: _324  and  _325
REMARK  127  A    between atoms: _324  and  _327
REMARK  128  A    between atoms: _327  and  _328
REMARK  129  A    between atoms: _338  and  _340
REMARK  130  A    between atoms: _340  and  _341
REMARK  131  A    between atoms: _340  and  _343
REMARK  132  A    between atoms: _343  and  _344
REMARK  133  A    between atoms: _344  and  _345
REMARK                            x       y       z     vdW  Elec       q    Type
REMARK                         _______ _______ _______ _____ _____    ______ ____
ROOT
ATOM      1  O   HOH     1      26.111 -14.658  22.168  0.00  0.00    +0.000 OA
ENDROOT
TORSDOF 0
REMARK  Name = ../refined-set-2016/3ary/3ary_pocket.pdb
REMARK  133 active torsions:
REMARK  status: ('A' for Active; 'I' for Inactive)
REMARK    1  A    between atoms: _1  and  _3
REMARK    2  A    between atoms: _3  and  _4
REMARK    3  A    between atoms: _3  and  _6
REMARK    4  A    between atoms: _6  and  _7
REMARK    5  A    between atoms: _17  and  _19
REMARK    6  A    between atoms: _19  and  _20
REMARK    7  A    between atoms: _19  and  _22
REMARK    8  A    between atoms: _22  and  _23
REMARK    9  A    between atoms: _29  and  _31
REMARK   10  A    between atoms: _31  and  _32
REMARK   11  A    between atoms: _31  and  _34
REMARK   12  A    between atoms: _34  and  _35
REMARK   13  A    between atoms: _37  and  _39
REMARK   14  A    between atoms: _39  and  _40
REMARK   15  A    between atoms: _39  and  _42
REMARK   16  A    between atoms: _45  and  _47
REMARK   17  A    between atoms: _47  and  _48
REMARK   18  A    between atoms: _47  and  _50
REMARK   19  A    between atoms: _50  and  _51
REMARK   20  A    between atoms: _53  and  _55
REMARK   21  A    between atoms: _55  and  _56
REMARK   22  A    between atoms: _55  and  _58
REMARK   23  A    between atoms: _61  and  _63
REMARK   24  A    between atoms: _63  and  _64
REMARK   25  A    between atoms: _66  and  _68
REMARK   26  A    between atoms: _68  and  _69
REMARK   27  A    between atoms: _68  and  _71
REMARK   28  A    between atoms: _71  and  _72
REMARK   29  A    between atoms: _82  and  _84
REMARK   30  A    between atoms: _84  and  _85
REMARK   31  A    between atoms: _84  and  _87
REMARK   32  A    between atoms: _87  and  _88
REMARK   33  A    between atoms: _91  and  _93
REMARK   34  A    between atoms: _93  and  _94
REMARK   35  A    between atoms: _93  and  _96
REMARK   36  A    between atoms: _96  and  _97
REMARK   37  A    between atoms: _100  and  _102
REMARK   38  A    between atoms: _102  and  _103
REMARK   39  A    between atoms: _102  and  _105
REMARK   40  A    between atoms: _105  and  _106
REMARK   41  A    between atoms: _106  and  _107
REMARK   42  A    between atoms: _110  and  _112
REMARK   43  A    between atoms: _112  and  _113
REMARK   44  A    between atoms: _112  and  _115
REMARK   45  A    between atoms: _115  and  _116
REMARK   46  A    between atoms: _122  and  _124
REMARK   47  A    between atoms: _124  and  _125
REMARK   48  A    between atoms: _127  and  _129
REMARK   49  A    between atoms: _129  and  _130
REMARK   50  A    between atoms: _132  and  _134
REMARK   51  A    between atoms: _134  and  _135
REMARK   52  A    between atoms: _138  and  _140
REMARK   53  A    between atoms: _140  and  _141
REMARK   54  A    between atoms: _140  and  _143
REMARK   55  A    between atoms: _143  and  _144
REMARK   56  A    between atoms: _144  and  _145
REMARK   57  A    between atoms: _145  and  _146
REMARK   58  A    between atoms: _146  and  _147
REMARK   59  A    between atoms: _151  and  _153
REMARK   60  A    between atoms: _153  and  _154
REMARK   61  A    between atoms: _153  and  _156
REMARK   62  A    between atoms: _156  and  _157
REMARK   63  A    between atoms: _157  and  _158
REMARK   64  A    between atoms: _160  and  _162
REMARK   65  A    between atoms: _162  and  _163
REMARK   66  A    between atoms: _162  and  _165
REMARK   67  A    between atoms: _165  and  _166
REMARK   68  A    between atoms: _171  and  _172
REMARK   69  A    between atoms: _174  and  _176
REMARK   70  A    between atoms: _176  and  _177
REMARK   71  A    between atoms: _176  and  _179
REMARK   72  A    between atoms: _179  and  _180
REMARK   73  A    between atoms: _183  and  _185
REMARK   74  A    between atoms: _185  and  _186
REMARK   75  A    between atoms: _185  and  _188
REMARK   76  A    between atoms: _188  and  _189
REMARK   77  A    between atoms: _195  and  _197
REMARK   78  A    between atoms: _197  and  _198
REMARK   79  A    between atoms: _197  and  _200
REMARK   80  A    between atoms: _200  and  _201
REMARK   81  A    between atoms: _206  and  _207
REMARK   82  A    between atoms: _209  and  _211
REMARK   83  A    between atoms: _211  and  _212
REMARK   84  A    between atoms: _214  and  _216
REMARK   85  A    between atoms: _216  and  _217
REMARK   86  A    between atoms: _219  and  _221
REMARK   87  A    between atoms: _221  and  _222
REMARK   88  A    between atoms: _221  and  _224
REMARK   89  A    between atoms: _224  and  _225
REMARK   90  A    between atoms: _235  and  _237
REMARK   91  A    between atoms: _237  and  _238
REMARK   92  A    between atoms: _237  and  _240
REMARK   93  A    between atoms: _240  and  _241
REMARK   94  A    between atoms: _246  and  _248
REMARK   95  A    between atoms: _248  and  _249
REMARK   96  A    between atoms: _248  and  _251
REMARK   97  A    between atoms: _251  and  _252
REMARK   98  A    between atoms: _257  and  _258
REMARK   99  A    between atoms: _260  and  _262
REMARK  100  A    between atoms: _262  and  _263
REMARK  101  A    between atoms: _262  and  _265
REMARK  102  A    between atoms: _265  and  _266
REMARK  103  A    between atoms: _271  and  _272
REMARK  104  A    between atoms: _274  and  _276
REMARK  105  A    between atoms: _276  and  _277
REMARK  106  A    between atoms: _276  and  _279
REMARK  107  A    between atoms: _279  and  _280
REMARK  108  A    between atoms: _280  and  _281
REMARK  109  A    between atoms: _281  and  _282
REMARK  110  A    between atoms: _291  and  _293
REMARK  111  A    between atoms: _293  and  _294
REMARK  112  A    between atoms: _293  and  _296
REMARK  113  A    between atoms: _296  and  _297
REMARK  114  A    between atoms: _297  and  _298
REMARK  115  A    between atoms: _298  and  _299
REMARK  116  A    between atoms: _299  and  _300
REMARK  117  A    between atoms: _304  and  _306
REMARK  118  A    between atoms: _306  and  _307
REMARK  119  A    between atoms: _306  and  _309
REMARK  120  A    between atoms: _309  and  _310
REMARK  121  A    between atoms: _310  and  _311
REMARK  122  A    between atoms: _314  and  _316
REMARK  123  A    between atoms: _316  and  _317
REMARK  124  A    between atoms: _316  and  _319
REMARK  125  A    between atoms: _322  and  _324
REMARK  126  A    between atoms: _324  and  _325
REMARK  127  A    between atoms: _324  and  _327
REMARK  128  A    between atoms: _327  and  _328
REMARK  129  A    between atoms: _338  and  _340
REMARK  130  A    between atoms: _340  and  _341
REMARK  131  A    between atoms: _340  and  _343
REMARK  132  A    between atoms: _343  and  _344
REMARK  133  A    between atoms: _344  and  _345
REMARK                            x       y       z     vdW  Elec       q    Type
REMARK                         _______ _______ _______ _____ _____    ______ ____
ROOT
ATOM      1  O   HOH     1      23.751 -14.281  26.524  0.00  0.00    +0.000 OA
ENDROOT
TORSDOF 0
REMARK  Name = ../refined-set-2016/3ary/3ary_pocket.pdb
REMARK  133 active torsions:
REMARK  status: ('A' for Active; 'I' for Inactive)
REMARK    1  A    between atoms: _1  and  _3
REMARK    2  A    between atoms: _3  and  _4
REMARK    3  A    between atoms: _3  and  _6
REMARK    4  A    between atoms: _6  and  _7
REMARK    5  A    between atoms: _17  and  _19
REMARK    6  A    between atoms: _19  and  _20
REMARK    7  A    between atoms: _19  and  _22
REMARK    8  A    between atoms: _22  and  _23
REMARK    9  A    between atoms: _29  and  _31
REMARK   10  A    between atoms: _31  and  _32
REMARK   11  A    between atoms: _31  and  _34
REMARK   12  A    between atoms: _34  and  _35
REMARK   13  A    between atoms: _37  and  _39
REMARK   14  A    between atoms: _39  and  _40
REMARK   15  A    between atoms: _39  and  _42
REMARK   16  A    between atoms: _45  and  _47
REMARK   17  A    between atoms: _47  and  _48
REMARK   18  A    between atoms: _47  and  _50
REMARK   19  A    between atoms: _50  and  _51
REMARK   20  A    between atoms: _53  and  _55
REMARK   21  A    between atoms: _55  and  _56
REMARK   22  A    between atoms: _55  and  _58
REMARK   23  A    between atoms: _61  and  _63
REMARK   24  A    between atoms: _63  and  _64
REMARK   25  A    between atoms: _66  and  _68
REMARK   26  A    between atoms: _68  and  _69
REMARK   27  A    between atoms: _68  and  _71
REMARK   28  A    between atoms: _71  and  _72
REMARK   29  A    between atoms: _82  and  _84
REMARK   30  A    between atoms: _84  and  _85
REMARK   31  A    between atoms: _84  and  _87
REMARK   32  A    between atoms: _87  and  _88
REMARK   33  A    between atoms: _91  and  _93
REMARK   34  A    between atoms: _93  and  _94
REMARK   35  A    between atoms: _93  and  _96
REMARK   36  A    between atoms: _96  and  _97
REMARK   37  A    between atoms: _100  and  _102
REMARK   38  A    between atoms: _102  and  _103
REMARK   39  A    between atoms: _102  and  _105
REMARK   40  A    between atoms: _105  and  _106
REMARK   41  A    between atoms: _106  and  _107
REMARK   42  A    between atoms: _110  and  _112
REMARK   43  A    between atoms: _112  and  _113
REMARK   44  A    between atoms: _112  and  _115
REMARK   45  A    between atoms: _115  and  _116
REMARK   46  A    between atoms: _122  and  _124
REMARK   47  A    between atoms: _124  and  _125
REMARK   48  A    between atoms: _127  and  _129
REMARK   49  A    between atoms: _129  and  _130
REMARK   50  A    between atoms: _132  and  _134
REMARK   51  A    between atoms: _134  and  _135
REMARK   52  A    between atoms: _138  and  _140
REMARK   53  A    between atoms: _140  and  _141
REMARK   54  A    between atoms: _140  and  _143
REMARK   55  A    between atoms: _143  and  _144
REMARK   56  A    between atoms: _144  and  _145
REMARK   57  A    between atoms: _145  and  _146
REMARK   58  A    between atoms: _146  and  _147
REMARK   59  A    between atoms: _151  and  _153
REMARK   60  A    between atoms: _153  and  _154
REMARK   61  A    between atoms: _153  and  _156
REMARK   62  A    between atoms: _156  and  _157
REMARK   63  A    between atoms: _157  and  _158
REMARK   64  A    between atoms: _160  and  _162
REMARK   65  A    between atoms: _162  and  _163
REMARK   66  A    between atoms: _162  and  _165
REMARK   67  A    between atoms: _165  and  _166
REMARK   68  A    between atoms: _171  and  _172
REMARK   69  A    between atoms: _174  and  _176
REMARK   70  A    between atoms: _176  and  _177
REMARK   71  A    between atoms: _176  and  _179
REMARK   72  A    between atoms: _179  and  _180
REMARK   73  A    between atoms: _183  and  _185
REMARK   74  A    between atoms: _185  and  _186
REMARK   75  A    between atoms: _185  and  _188
REMARK   76  A    between atoms: _188  and  _189
REMARK   77  A    between atoms: _195  and  _197
REMARK   78  A    between atoms: _197  and  _198
REMARK   79  A    between atoms: _197  and  _200
REMARK   80  A    between atoms: _200  and  _201
REMARK   81  A    between atoms: _206  and  _207
REMARK   82  A    between atoms: _209  and  _211
REMARK   83  A    between atoms: _211  and  _212
REMARK   84  A    between atoms: _214  and  _216
REMARK   85  A    between atoms: _216  and  _217
REMARK   86  A    between atoms: _219  and  _221
REMARK   87  A    between atoms: _221  and  _222
REMARK   88  A    between atoms: _221  and  _224
REMARK   89  A    between atoms: _224  and  _225
REMARK   90  A    between atoms: _235  and  _237
REMARK   91  A    between atoms: _237  and  _238
REMARK   92  A    between atoms: _237  and  _240
REMARK   93  A    between atoms: _240  and  _241
REMARK   94  A    between atoms: _246  and  _248
REMARK   95  A    between atoms: _248  and  _249
REMARK   96  A    between atoms: _248  and  _251
REMARK   97  A    between atoms: _251  and  _252
REMARK   98  A    between atoms: _257  and  _258
REMARK   99  A    between atoms: _260  and  _262
REMARK  100  A    between atoms: _262  and  _263
REMARK  101  A    between atoms: _262  and  _265
REMARK  102  A    between atoms: _265  and  _266
REMARK  103  A    between atoms: _271  and  _272
REMARK  104  A    between atoms: _274  and  _276
REMARK  105  A    between atoms: _276  and  _277
REMARK  106  A    between atoms: _276  and  _279
REMARK  107  A    between atoms: _279  and  _280
REMARK  108  A    between atoms: _280  and  _281
REMARK  109  A    between atoms: _281  and  _282
REMARK  110  A    between atoms: _291  and  _293
REMARK  111  A    between atoms: _293  and  _294
REMARK  112  A    between atoms: _293  and  _296
REMARK  113  A    between atoms: _296  and  _297
REMARK  114  A    between atoms: _297  and  _298
REMARK  115  A    between atoms: _298  and  _299
REMARK  116  A    between atoms: _299  and  _300
REMARK  117  A    between atoms: _304  and  _306
REMARK  118  A    between atoms: _306  and  _307
REMARK  119  A    between atoms: _306  and  _309
REMARK  120  A    between atoms: _309  and  _310
REMARK  121  A    between atoms: _310  and  _311
REMARK  122  A    between atoms: _314  and  _316
REMARK  123  A    between atoms: _316  and  _317
REMARK  124  A    between atoms: _316  and  _319
REMARK  125  A    between atoms: _322  and  _324
REMARK  126  A    between atoms: _324  and  _325
REMARK  127  A    between atoms: _324  and  _327
REMARK  128  A    between atoms: _327  and  _328
REMARK  129  A    between atoms: _338  and  _340
REMARK  130  A    between atoms: _340  and  _341
REMARK  131  A    between atoms: _340  and  _343
REMARK  132  A    between atoms: _343  and  _344
REMARK  133  A    between atoms: _344  and  _345
REMARK                            x       y       z     vdW  Elec       q    Type
REMARK                         _______ _______ _______ _____ _____    ______ ____
ROOT
ATOM      1  O   HOH     1      18.961 -12.499  30.324  0.00  0.00    +0.000 OA
ENDROOT
TORSDOF 0
REMARK  Name = ../refined-set-2016/3ary/3ary_pocket.pdb
REMARK  133 active torsions:
REMARK  status: ('A' for Active; 'I' for Inactive)
REMARK    1  A    between atoms: _1  and  _3
REMARK    2  A    between atoms: _3  and  _4
REMARK    3  A    between atoms: _3  and  _6
REMARK    4  A    between atoms: _6  and  _7
REMARK    5  A    between atoms: _17  and  _19
REMARK    6  A    between atoms: _19  and  _20
REMARK    7  A    between atoms: _19  and  _22
REMARK    8  A    between atoms: _22  and  _23
REMARK    9  A    between atoms: _29  and  _31
REMARK   10  A    between atoms: _31  and  _32
REMARK   11  A    between atoms: _31  and  _34
REMARK   12  A    between atoms: _34  and  _35
REMARK   13  A    between atoms: _37  and  _39
REMARK   14  A    between atoms: _39  and  _40
REMARK   15  A    between atoms: _39  and  _42
REMARK   16  A    between atoms: _45  and  _47
REMARK   17  A    between atoms: _47  and  _48
REMARK   18  A    between atoms: _47  and  _50
REMARK   19  A    between atoms: _50  and  _51
REMARK   20  A    between atoms: _53  and  _55
REMARK   21  A    between atoms: _55  and  _56
REMARK   22  A    between atoms: _55  and  _58
REMARK   23  A    between atoms: _61  and  _63
REMARK   24  A    between atoms: _63  and  _64
REMARK   25  A    between atoms: _66  and  _68
REMARK   26  A    between atoms: _68  and  _69
REMARK   27  A    between atoms: _68  and  _71
REMARK   28  A    between atoms: _71  and  _72
REMARK   29  A    between atoms: _82  and  _84
REMARK   30  A    between atoms: _84  and  _85
REMARK   31  A    between atoms: _84  and  _87
REMARK   32  A    between atoms: _87  and  _88
REMARK   33  A    between atoms: _91  and  _93
REMARK   34  A    between atoms: _93  and  _94
REMARK   35  A    between atoms: _93  and  _96
REMARK   36  A    between atoms: _96  and  _97
REMARK   37  A    between atoms: _100  and  _102
REMARK   38  A    between atoms: _102  and  _103
REMARK   39  A    between atoms: _102  and  _105
REMARK   40  A    between atoms: _105  and  _106
REMARK   41  A    between atoms: _106  and  _107
REMARK   42  A    between atoms: _110  and  _112
REMARK   43  A    between atoms: _112  and  _113
REMARK   44  A    between atoms: _112  and  _115
REMARK   45  A    between atoms: _115  and  _116
REMARK   46  A    between atoms: _122  and  _124
REMARK   47  A    between atoms: _124  and  _125
REMARK   48  A    between atoms: _127  and  _129
REMARK   49  A    between atoms: _129  and  _130
REMARK   50  A    between atoms: _132  and  _134
REMARK   51  A    between atoms: _134  and  _135
REMARK   52  A    between atoms: _138  and  _140
REMARK   53  A    between atoms: _140  and  _141
REMARK   54  A    between atoms: _140  and  _143
REMARK   55  A    between atoms: _143  and  _144
REMARK   56  A    between atoms: _144  and  _145
REMARK   57  A    between atoms: _145  and  _146
REMARK   58  A    between atoms: _146  and  _147
REMARK   59  A    between atoms: _151  and  _153
REMARK   60  A    between atoms: _153  and  _154
REMARK   61  A    between atoms: _153  and  _156
REMARK   62  A    between atoms: _156  and  _157
REMARK   63  A    between atoms: _157  and  _158
REMARK   64  A    between atoms: _160  and  _162
REMARK   65  A    between atoms: _162  and  _163
REMARK   66  A    between atoms: _162  and  _165
REMARK   67  A    between atoms: _165  and  _166
REMARK   68  A    between atoms: _171  and  _172
REMARK   69  A    between atoms: _174  and  _176
REMARK   70  A    between atoms: _176  and  _177
REMARK   71  A    between atoms: _176  and  _179
REMARK   72  A    between atoms: _179  and  _180
REMARK   73  A    between atoms: _183  and  _185
REMARK   74  A    between atoms: _185  and  _186
REMARK   75  A    between atoms: _185  and  _188
REMARK   76  A    between atoms: _188  and  _189
REMARK   77  A    between atoms: _195  and  _197
REMARK   78  A    between atoms: _197  and  _198
REMARK   79  A    between atoms: _197  and  _200
REMARK   80  A    between atoms: _200  and  _201
REMARK   81  A    between atoms: _206  and  _207
REMARK   82  A    between atoms: _209  and  _211
REMARK   83  A    between atoms: _211  and  _212
REMARK   84  A    between atoms: _214  and  _216
REMARK   85  A    between atoms: _216  and  _217
REMARK   86  A    between atoms: _219  and  _221
REMARK   87  A    between atoms: _221  and  _222
REMARK   88  A    between atoms: _221  and  _224
REMARK   89  A    between atoms: _224  and  _225
REMARK   90  A    between atoms: _235  and  _237
REMARK   91  A    between atoms: _237  and  _238
REMARK   92  A    between atoms: _237  and  _240
REMARK   93  A    between atoms: _240  and  _241
REMARK   94  A    between atoms: _246  and  _248
REMARK   95  A    between atoms: _248  and  _249
REMARK   96  A    between atoms: _248  and  _251
REMARK   97  A    between atoms: _251  and  _252
REMARK   98  A    between atoms: _257  and  _258
REMARK   99  A    between atoms: _260  and  _262
REMARK  100  A    between atoms: _262  and  _263
REMARK  101  A    between atoms: _262  and  _265
REMARK  102  A    between atoms: _265  and  _266
REMARK  103  A    between atoms: _271  and  _272
REMARK  104  A    between atoms: _274  and  _276
REMARK  105  A    between atoms: _276  and  _277
REMARK  106  A    between atoms: _276  and  _279
REMARK  107  A    between atoms: _279  and  _280
REMARK  108  A    between atoms: _280  and  _281
REMARK  109  A    between atoms: _281  and  _282
REMARK  110  A    between atoms: _291  and  _293
REMARK  111  A    between atoms: _293  and  _294
REMARK  112  A    between atoms: _293  and  _296
REMARK  113  A    between atoms: _296  and  _297
REMARK  114  A    between atoms: _297  and  _298
REMARK  115  A    between atoms: _298  and  _299
REMARK  116  A    between atoms: _299  and  _300
REMARK  117  A    between atoms: _304  and  _306
REMARK  118  A    between atoms: _306  and  _307
REMARK  119  A    between atoms: _306  and  _309
REMARK  120  A    between atoms: _309  and  _310
REMARK  121  A    between atoms: _310  and  _311
REMARK  122  A    between atoms: _314  and  _316
REMARK  123  A    between atoms: _316  and  _317
REMARK  124  A    between atoms: _316  and  _319
REMARK  125  A    between atoms: _322  and  _324
REMARK  126  A    between atoms: _324  and  _325
REMARK  127  A    between atoms: _324  and  _327
REMARK  128  A    between atoms: _327  and  _328
REMARK  129  A    between atoms: _338  and  _340
REMARK  130  A    between atoms: _340  and  _341
REMARK  131  A    between atoms: _340  and  _343
REMARK  132  A    between atoms: _343  and  _344
REMARK  133  A    between atoms: _344  and  _345
REMARK                            x       y       z     vdW  Elec       q    Type
REMARK                         _______ _______ _______ _____ _____    ______ ____
ROOT
ATOM      1  O   HOH     1      19.074  -2.616  20.153  0.00  0.00    +0.000 OA
ENDROOT
TORSDOF 0
REMARK  Name = ../refined-set-2016/3ary/3ary_pocket.pdb
REMARK  133 active torsions:
REMARK  status: ('A' for Active; 'I' for Inactive)
REMARK    1  A    between atoms: _1  and  _3
REMARK    2  A    between atoms: _3  and  _4
REMARK    3  A    between atoms: _3  and  _6
REMARK    4  A    between atoms: _6  and  _7
REMARK    5  A    between atoms: _17  and  _19
REMARK    6  A    between atoms: _19  and  _20
REMARK    7  A    between atoms: _19  and  _22
REMARK    8  A    between atoms: _22  and  _23
REMARK    9  A    between atoms: _29  and  _31
REMARK   10  A    between atoms: _31  and  _32
REMARK   11  A    between atoms: _31  and  _34
REMARK   12  A    between atoms: _34  and  _35
REMARK   13  A    between atoms: _37  and  _39
REMARK   14  A    between atoms: _39  and  _40
REMARK   15  A    between atoms: _39  and  _42
REMARK   16  A    between atoms: _45  and  _47
REMARK   17  A    between atoms: _47  and  _48
REMARK   18  A    between atoms: _47  and  _50
REMARK   19  A    between atoms: _50  and  _51
REMARK   20  A    between atoms: _53  and  _55
REMARK   21  A    between atoms: _55  and  _56
REMARK   22  A    between atoms: _55  and  _58
REMARK   23  A    between atoms: _61  and  _63
REMARK   24  A    between atoms: _63  and  _64
REMARK   25  A    between atoms: _66  and  _68
REMARK   26  A    between atoms: _68  and  _69
REMARK   27  A    between atoms: _68  and  _71
REMARK   28  A    between atoms: _71  and  _72
REMARK   29  A    between atoms: _82  and  _84
REMARK   30  A    between atoms: _84  and  _85
REMARK   31  A    between atoms: _84  and  _87
REMARK   32  A    between atoms: _87  and  _88
REMARK   33  A    between atoms: _91  and  _93
REMARK   34  A    between atoms: _93  and  _94
REMARK   35  A    between atoms: _93  and  _96
REMARK   36  A    between atoms: _96  and  _97
REMARK   37  A    between atoms: _100  and  _102
REMARK   38  A    between atoms: _102  and  _103
REMARK   39  A    between atoms: _102  and  _105
REMARK   40  A    between atoms: _105  and  _106
REMARK   41  A    between atoms: _106  and  _107
REMARK   42  A    between atoms: _110  and  _112
REMARK   43  A    between atoms: _112  and  _113
REMARK   44  A    between atoms: _112  and  _115
REMARK   45  A    between atoms: _115  and  _116
REMARK   46  A    between atoms: _122  and  _124
REMARK   47  A    between atoms: _124  and  _125
REMARK   48  A    between atoms: _127  and  _129
REMARK   49  A    between atoms: _129  and  _130
REMARK   50  A    between atoms: _132  and  _134
REMARK   51  A    between atoms: _134  and  _135
REMARK   52  A    between atoms: _138  and  _140
REMARK   53  A    between atoms: _140  and  _141
REMARK   54  A    between atoms: _140  and  _143
REMARK   55  A    between atoms: _143  and  _144
REMARK   56  A    between atoms: _144  and  _145
REMARK   57  A    between atoms: _145  and  _146
REMARK   58  A    between atoms: _146  and  _147
REMARK   59  A    between atoms: _151  and  _153
REMARK   60  A    between atoms: _153  and  _154
REMARK   61  A    between atoms: _153  and  _156
REMARK   62  A    between atoms: _156  and  _157
REMARK   63  A    between atoms: _157  and  _158
REMARK   64  A    between atoms: _160  and  _162
REMARK   65  A    between atoms: _162  and  _163
REMARK   66  A    between atoms: _162  and  _165
REMARK   67  A    between atoms: _165  and  _166
REMARK   68  A    between atoms: _171  and  _172
REMARK   69  A    between atoms: _174  and  _176
REMARK   70  A    between atoms: _176  and  _177
REMARK   71  A    between atoms: _176  and  _179
REMARK   72  A    between atoms: _179  and  _180
REMARK   73  A    between atoms: _183  and  _185
REMARK   74  A    between atoms: _185  and  _186
REMARK   75  A    between atoms: _185  and  _188
REMARK   76  A    between atoms: _188  and  _189
REMARK   77  A    between atoms: _195  and  _197
REMARK   78  A    between atoms: _197  and  _198
REMARK   79  A    between atoms: _197  and  _200
REMARK   80  A    between atoms: _200  and  _201
REMARK   81  A    between atoms: _206  and  _207
REMARK   82  A    between atoms: _209  and  _211
REMARK   83  A    between atoms: _211  and  _212
REMARK   84  A    between atoms: _214  and  _216
REMARK   85  A    between atoms: _216  and  _217
REMARK   86  A    between atoms: _219  and  _221
REMARK   87  A    between atoms: _221  and  _222
REMARK   88  A    between atoms: _221  and  _224
REMARK   89  A    between atoms: _224  and  _225
REMARK   90  A    between atoms: _235  and  _237
REMARK   91  A    between atoms: _237  and  _238
REMARK   92  A    between atoms: _237  and  _240
REMARK   93  A    between atoms: _240  and  _241
REMARK   94  A    between atoms: _246  and  _248
REMARK   95  A    between atoms: _248  and  _249
REMARK   96  A    between atoms: _248  and  _251
REMARK   97  A    between atoms: _251  and  _252
REMARK   98  A    between atoms: _257  and  _258
REMARK   99  A    between atoms: _260  and  _262
REMARK  100  A    between atoms: _262  and  _263
REMARK  101  A    between atoms: _262  and  _265
REMARK  102  A    between atoms: _265  and  _266
REMARK  103  A    between atoms: _271  and  _272
REMARK  104  A    between atoms: _274  and  _276
REMARK  105  A    between atoms: _276  and  _277
REMARK  106  A    between atoms: _276  and  _279
REMARK  107  A    between atoms: _279  and  _280
REMARK  108  A    between atoms: _280  and  _281
REMARK  109  A    between atoms: _281  and  _282
REMARK  110  A    between atoms: _291  and  _293
REMARK  111  A    between atoms: _293  and  _294
REMARK  112  A    between atoms: _293  and  _296
REMARK  113  A    between atoms: _296  and  _297
REMARK  114  A    between atoms: _297  and  _298
REMARK  115  A    between atoms: _298  and  _299
REMARK  116  A    between atoms: _299  and  _300
REMARK  117  A    between atoms: _304  and  _306
REMARK  118  A    between atoms: _306  and  _307
REMARK  119  A    between atoms: _306  and  _309
REMARK  120  A    between atoms: _309  and  _310
REMARK  121  A    between atoms: _310  and  _311
REMARK  122  A    between atoms: _314  and  _316
REMARK  123  A    between atoms: _316  and  _317
REMARK  124  A    between atoms: _316  and  _319
REMARK  125  A    between atoms: _322  and  _324
REMARK  126  A    between atoms: _324  and  _325
REMARK  127  A    between atoms: _324  and  _327
REMARK  128  A    between atoms: _327  and  _328
REMARK  129  A    between atoms: _338  and  _340
REMARK  130  A    between atoms: _340  and  _341
REMARK  131  A    between atoms: _340  and  _343
REMARK  132  A    between atoms: _343  and  _344
REMARK  133  A    between atoms: _344  and  _345
REMARK                            x       y       z     vdW  Elec       q    Type
REMARK                         _______ _______ _______ _____ _____    ______ ____
ROOT
ATOM      1  O   HOH     1      25.434 -13.142  24.595  0.00  0.00    +0.000 OA
ENDROOT
TORSDOF 0
REMARK  Name = ../refined-set-2016/3ary/3ary_pocket.pdb
REMARK  133 active torsions:
REMARK  status: ('A' for Active; 'I' for Inactive)
REMARK    1  A    between atoms: _1  and  _3
REMARK    2  A    between atoms: _3  and  _4
REMARK    3  A    between atoms: _3  and  _6
REMARK    4  A    between atoms: _6  and  _7
REMARK    5  A    between atoms: _17  and  _19
REMARK    6  A    between atoms: _19  and  _20
REMARK    7  A    between atoms: _19  and  _22
REMARK    8  A    between atoms: _22  and  _23
REMARK    9  A    between atoms: _29  and  _31
REMARK   10  A    between atoms: _31  and  _32
REMARK   11  A    between atoms: _31  and  _34
REMARK   12  A    between atoms: _34  and  _35
REMARK   13  A    between atoms: _37  and  _39
REMARK   14  A    between atoms: _39  and  _40
REMARK   15  A    between atoms: _39  and  _42
REMARK   16  A    between atoms: _45  and  _47
REMARK   17  A    between atoms: _47  and  _48
REMARK   18  A    between atoms: _47  and  _50
REMARK   19  A    between atoms: _50  and  _51
REMARK   20  A    between atoms: _53  and  _55
REMARK   21  A    between atoms: _55  and  _56
REMARK   22  A    between atoms: _55  and  _58
REMARK   23  A    between atoms: _61  and  _63
REMARK   24  A    between atoms: _63  and  _64
REMARK   25  A    between atoms: _66  and  _68
REMARK   26  A    between atoms: _68  and  _69
REMARK   27  A    between atoms: _68  and  _71
REMARK   28  A    between atoms: _71  and  _72
REMARK   29  A    between atoms: _82  and  _84
REMARK   30  A    between atoms: _84  and  _85
REMARK   31  A    between atoms: _84  and  _87
REMARK   32  A    between atoms: _87  and  _88
REMARK   33  A    between atoms: _91  and  _93
REMARK   34  A    between atoms: _93  and  _94
REMARK   35  A    between atoms: _93  and  _96
REMARK   36  A    between atoms: _96  and  _97
REMARK   37  A    between atoms: _100  and  _102
REMARK   38  A    between atoms: _102  and  _103
REMARK   39  A    between atoms: _102  and  _105
REMARK   40  A    between atoms: _105  and  _106
REMARK   41  A    between atoms: _106  and  _107
REMARK   42  A    between atoms: _110  and  _112
REMARK   43  A    between atoms: _112  and  _113
REMARK   44  A    between atoms: _112  and  _115
REMARK   45  A    between atoms: _115  and  _116
REMARK   46  A    between atoms: _122  and  _124
REMARK   47  A    between atoms: _124  and  _125
REMARK   48  A    between atoms: _127  and  _129
REMARK   49  A    between atoms: _129  and  _130
REMARK   50  A    between atoms: _132  and  _134
REMARK   51  A    between atoms: _134  and  _135
REMARK   52  A    between atoms: _138  and  _140
REMARK   53  A    between atoms: _140  and  _141
REMARK   54  A    between atoms: _140  and  _143
REMARK   55  A    between atoms: _143  and  _144
REMARK   56  A    between atoms: _144  and  _145
REMARK   57  A    between atoms: _145  and  _146
REMARK   58  A    between atoms: _146  and  _147
REMARK   59  A    between atoms: _151  and  _153
REMARK   60  A    between atoms: _153  and  _154
REMARK   61  A    between atoms: _153  and  _156
REMARK   62  A    between atoms: _156  and  _157
REMARK   63  A    between atoms: _157  and  _158
REMARK   64  A    between atoms: _160  and  _162
REMARK   65  A    between atoms: _162  and  _163
REMARK   66  A    between atoms: _162  and  _165
REMARK   67  A    between atoms: _165  and  _166
REMARK   68  A    between atoms: _171  and  _172
REMARK   69  A    between atoms: _174  and  _176
REMARK   70  A    between atoms: _176  and  _177
REMARK   71  A    between atoms: _176  and  _179
REMARK   72  A    between atoms: _179  and  _180
REMARK   73  A    between atoms: _183  and  _185
REMARK   74  A    between atoms: _185  and  _186
REMARK   75  A    between atoms: _185  and  _188
REMARK   76  A    between atoms: _188  and  _189
REMARK   77  A    between atoms: _195  and  _197
REMARK   78  A    between atoms: _197  and  _198
REMARK   79  A    between atoms: _197  and  _200
REMARK   80  A    between atoms: _200  and  _201
REMARK   81  A    between atoms: _206  and  _207
REMARK   82  A    between atoms: _209  and  _211
REMARK   83  A    between atoms: _211  and  _212
REMARK   84  A    between atoms: _214  and  _216
REMARK   85  A    between atoms: _216  and  _217
REMARK   86  A    between atoms: _219  and  _221
REMARK   87  A    between atoms: _221  and  _222
REMARK   88  A    between atoms: _221  and  _224
REMARK   89  A    between atoms: _224  and  _225
REMARK   90  A    between atoms: _235  and  _237
REMARK   91  A    between atoms: _237  and  _238
REMARK   92  A    between atoms: _237  and  _240
REMARK   93  A    between atoms: _240  and  _241
REMARK   94  A    between atoms: _246  and  _248
REMARK   95  A    between atoms: _248  and  _249
REMARK   96  A    between atoms: _248  and  _251
REMARK   97  A    between atoms: _251  and  _252
REMARK   98  A    between atoms: _257  and  _258
REMARK   99  A    between atoms: _260  and  _262
REMARK  100  A    between atoms: _262  and  _263
REMARK  101  A    between atoms: _262  and  _265
REMARK  102  A    between atoms: _265  and  _266
REMARK  103  A    between atoms: _271  and  _272
REMARK  104  A    between atoms: _274  and  _276
REMARK  105  A    between atoms: _276  and  _277
REMARK  106  A    between atoms: _276  and  _279
REMARK  107  A    between atoms: _279  and  _280
REMARK  108  A    between atoms: _280  and  _281
REMARK  109  A    between atoms: _281  and  _282
REMARK  110  A    between atoms: _291  and  _293
REMARK  111  A    between atoms: _293  and  _294
REMARK  112  A    between atoms: _293  and  _296
REMARK  113  A    between atoms: _296  and  _297
REMARK  114  A    between atoms: _297  and  _298
REMARK  115  A    between atoms: _298  and  _299
REMARK  116  A    between atoms: _299  and  _300
REMARK  117  A    between atoms: _304  and  _306
REMARK  118  A    between atoms: _306  and  _307
REMARK  119  A    between atoms: _306  and  _309
REMARK  120  A    between atoms: _309  and  _310
REMARK  121  A    between atoms: _310  and  _311
REMARK  122  A    between atoms: _314  and  _316
REMARK  123  A    between atoms: _316  and  _317
REMARK  124  A    between atoms: _316  and  _319
REMARK  125  A    between atoms: _322  and  _324
REMARK  126  A    between atoms: _324  and  _325
REMARK  127  A    between atoms: _324  and  _327
REMARK  128  A    between atoms: _327  and  _328
REMARK  129  A    between atoms: _338  and  _340
REMARK  130  A    between atoms: _340  and  _341
REMARK  131  A    between atoms: _340  and  _343
REMARK  132  A    between atoms: _343  and  _344
REMARK  133  A    between atoms: _344  and  _345
REMARK                            x       y       z     vdW  Elec       q    Type
REMARK                         _______ _______ _______ _____ _____    ______ ____
ROOT
ATOM      1  O   HOH     1      25.654 -12.535  16.694  0.00  0.00    +0.000 OA
ENDROOT
TORSDOF 0
REMARK  Name = ../refined-set-2016/3ary/3ary_pocket.pdb
REMARK  133 active torsions:
REMARK  status: ('A' for Active; 'I' for Inactive)
REMARK    1  A    between atoms: _1  and  _3
REMARK    2  A    between atoms: _3  and  _4
REMARK    3  A    between atoms: _3  and  _6
REMARK    4  A    between atoms: _6  and  _7
REMARK    5  A    between atoms: _17  and  _19
REMARK    6  A    between atoms: _19  and  _20
REMARK    7  A    between atoms: _19  and  _22
REMARK    8  A    between atoms: _22  and  _23
REMARK    9  A    between atoms: _29  and  _31
REMARK   10  A    between atoms: _31  and  _32
REMARK   11  A    between atoms: _31  and  _34
REMARK   12  A    between atoms: _34  and  _35
REMARK   13  A    between atoms: _37  and  _39
REMARK   14  A    between atoms: _39  and  _40
REMARK   15  A    between atoms: _39  and  _42
REMARK   16  A    between atoms: _45  and  _47
REMARK   17  A    between atoms: _47  and  _48
REMARK   18  A    between atoms: _47  and  _50
REMARK   19  A    between atoms: _50  and  _51
REMARK   20  A    between atoms: _53  and  _55
REMARK   21  A    between atoms: _55  and  _56
REMARK   22  A    between atoms: _55  and  _58
REMARK   23  A    between atoms: _61  and  _63
REMARK   24  A    between atoms: _63  and  _64
REMARK   25  A    between atoms: _66  and  _68
REMARK   26  A    between atoms: _68  and  _69
REMARK   27  A    between atoms: _68  and  _71
REMARK   28  A    between atoms: _71  and  _72
REMARK   29  A    between atoms: _82  and  _84
REMARK   30  A    between atoms: _84  and  _85
REMARK   31  A    between atoms: _84  and  _87
REMARK   32  A    between atoms: _87  and  _88
REMARK   33  A    between atoms: _91  and  _93
REMARK   34  A    between atoms: _93  and  _94
REMARK   35  A    between atoms: _93  and  _96
REMARK   36  A    between atoms: _96  and  _97
REMARK   37  A    between atoms: _100  and  _102
REMARK   38  A    between atoms: _102  and  _103
REMARK   39  A    between atoms: _102  and  _105
REMARK   40  A    between atoms: _105  and  _106
REMARK   41  A    between atoms: _106  and  _107
REMARK   42  A    between atoms: _110  and  _112
REMARK   43  A    between atoms: _112  and  _113
REMARK   44  A    between atoms: _112  and  _115
REMARK   45  A    between atoms: _115  and  _116
REMARK   46  A    between atoms: _122  and  _124
REMARK   47  A    between atoms: _124  and  _125
REMARK   48  A    between atoms: _127  and  _129
REMARK   49  A    between atoms: _129  and  _130
REMARK   50  A    between atoms: _132  and  _134
REMARK   51  A    between atoms: _134  and  _135
REMARK   52  A    between atoms: _138  and  _140
REMARK   53  A    between atoms: _140  and  _141
REMARK   54  A    between atoms: _140  and  _143
REMARK   55  A    between atoms: _143  and  _144
REMARK   56  A    between atoms: _144  and  _145
REMARK   57  A    between atoms: _145  and  _146
REMARK   58  A    between atoms: _146  and  _147
REMARK   59  A    between atoms: _151  and  _153
REMARK   60  A    between atoms: _153  and  _154
REMARK   61  A    between atoms: _153  and  _156
REMARK   62  A    between atoms: _156  and  _157
REMARK   63  A    between atoms: _157  and  _158
REMARK   64  A    between atoms: _160  and  _162
REMARK   65  A    between atoms: _162  and  _163
REMARK   66  A    between atoms: _162  and  _165
REMARK   67  A    between atoms: _165  and  _166
REMARK   68  A    between atoms: _171  and  _172
REMARK   69  A    between atoms: _174  and  _176
REMARK   70  A    between atoms: _176  and  _177
REMARK   71  A    between atoms: _176  and  _179
REMARK   72  A    between atoms: _179  and  _180
REMARK   73  A    between atoms: _183  and  _185
REMARK   74  A    between atoms: _185  and  _186
REMARK   75  A    between atoms: _185  and  _188
REMARK   76  A    between atoms: _188  and  _189
REMARK   77  A    between atoms: _195  and  _197
REMARK   78  A    between atoms: _197  and  _198
REMARK   79  A    between atoms: _197  and  _200
REMARK   80  A    between atoms: _200  and  _201
REMARK   81  A    between atoms: _206  and  _207
REMARK   82  A    between atoms: _209  and  _211
REMARK   83  A    between atoms: _211  and  _212
REMARK   84  A    between atoms: _214  and  _216
REMARK   85  A    between atoms: _216  and  _217
REMARK   86  A    between atoms: _219  and  _221
REMARK   87  A    between atoms: _221  and  _222
REMARK   88  A    between atoms: _221  and  _224
REMARK   89  A    between atoms: _224  and  _225
REMARK   90  A    between atoms: _235  and  _237
REMARK   91  A    between atoms: _237  and  _238
REMARK   92  A    between atoms: _237  and  _240
REMARK   93  A    between atoms: _240  and  _241
REMARK   94  A    between atoms: _246  and  _248
REMARK   95  A    between atoms: _248  and  _249
REMARK   96  A    between atoms: _248  and  _251
REMARK   97  A    between atoms: _251  and  _252
REMARK   98  A    between atoms: _257  and  _258
REMARK   99  A    between atoms: _260  and  _262
REMARK  100  A    between atoms: _262  and  _263
REMARK  101  A    between atoms: _262  and  _265
REMARK  102  A    between atoms: _265  and  _266
REMARK  103  A    between atoms: _271  and  _272
REMARK  104  A    between atoms: _274  and  _276
REMARK  105  A    between atoms: _276  and  _277
REMARK  106  A    between atoms: _276  and  _279
REMARK  107  A    between atoms: _279  and  _280
REMARK  108  A    between atoms: _280  and  _281
REMARK  109  A    between atoms: _281  and  _282
REMARK  110  A    between atoms: _291  and  _293
REMARK  111  A    between atoms: _293  and  _294
REMARK  112  A    between atoms: _293  and  _296
REMARK  113  A    between atoms: _296  and  _297
REMARK  114  A    between atoms: _297  and  _298
REMARK  115  A    between atoms: _298  and  _299
REMARK  116  A    between atoms: _299  and  _300
REMARK  117  A    between atoms: _304  and  _306
REMARK  118  A    between atoms: _306  and  _307
REMARK  119  A    between atoms: _306  and  _309
REMARK  120  A    between atoms: _309  and  _310
REMARK  121  A    between atoms: _310  and  _311
REMARK  122  A    between atoms: _314  and  _316
REMARK  123  A    between atoms: _316  and  _317
REMARK  124  A    between atoms: _316  and  _319
REMARK  125  A    between atoms: _322  and  _324
REMARK  126  A    between atoms: _324  and  _325
REMARK  127  A    between atoms: _324  and  _327
REMARK  128  A    between atoms: _327  and  _328
REMARK  129  A    between atoms: _338  and  _340
REMARK  130  A    between atoms: _340  and  _341
REMARK  131  A    between atoms: _340  and  _343
REMARK  132  A    between atoms: _343  and  _344
REMARK  133  A    between atoms: _344  and  _345
REMARK                            x       y       z     vdW  Elec       q    Type
REMARK                         _______ _______ _______ _____ _____    ______ ____
ROOT
ATOM      1  O   HOH     1      10.481  -4.551  26.292  0.00  0.00    +0.000 OA
ENDROOT
TORSDOF 0
REMARK  Name = ../refined-set-2016/3ary/3ary_pocket.pdb
REMARK  133 active torsions:
REMARK  status: ('A' for Active; 'I' for Inactive)
REMARK    1  A    between atoms: _1  and  _3
REMARK    2  A    between atoms: _3  and  _4
REMARK    3  A    between atoms: _3  and  _6
REMARK    4  A    between atoms: _6  and  _7
REMARK    5  A    between atoms: _17  and  _19
REMARK    6  A    between atoms: _19  and  _20
REMARK    7  A    between atoms: _19  and  _22
REMARK    8  A    between atoms: _22  and  _23
REMARK    9  A    between atoms: _29  and  _31
REMARK   10  A    between atoms: _31  and  _32
REMARK   11  A    between atoms: _31  and  _34
REMARK   12  A    between atoms: _34  and  _35
REMARK   13  A    between atoms: _37  and  _39
REMARK   14  A    between atoms: _39  and  _40
REMARK   15  A    between atoms: _39  and  _42
REMARK   16  A    between atoms: _45  and  _47
REMARK   17  A    between atoms: _47  and  _48
REMARK   18  A    between atoms: _47  and  _50
REMARK   19  A    between atoms: _50  and  _51
REMARK   20  A    between atoms: _53  and  _55
REMARK   21  A    between atoms: _55  and  _56
REMARK   22  A    between atoms: _55  and  _58
REMARK   23  A    between atoms: _61  and  _63
REMARK   24  A    between atoms: _63  and  _64
REMARK   25  A    between atoms: _66  and  _68
REMARK   26  A    between atoms: _68  and  _69
REMARK   27  A    between atoms: _68  and  _71
REMARK   28  A    between atoms: _71  and  _72
REMARK   29  A    between atoms: _82  and  _84
REMARK   30  A    between atoms: _84  and  _85
REMARK   31  A    between atoms: _84  and  _87
REMARK   32  A    between atoms: _87  and  _88
REMARK   33  A    between atoms: _91  and  _93
REMARK   34  A    between atoms: _93  and  _94
REMARK   35  A    between atoms: _93  and  _96
REMARK   36  A    between atoms: _96  and  _97
REMARK   37  A    between atoms: _100  and  _102
REMARK   38  A    between atoms: _102  and  _103
REMARK   39  A    between atoms: _102  and  _105
REMARK   40  A    between atoms: _105  and  _106
REMARK   41  A    between atoms: _106  and  _107
REMARK   42  A    between atoms: _110  and  _112
REMARK   43  A    between atoms: _112  and  _113
REMARK   44  A    between atoms: _112  and  _115
REMARK   45  A    between atoms: _115  and  _116
REMARK   46  A    between atoms: _122  and  _124
REMARK   47  A    between atoms: _124  and  _125
REMARK   48  A    between atoms: _127  and  _129
REMARK   49  A    between atoms: _129  and  _130
REMARK   50  A    between atoms: _132  and  _134
REMARK   51  A    between atoms: _134  and  _135
REMARK   52  A    between atoms: _138  and  _140
REMARK   53  A    between atoms: _140  and  _141
REMARK   54  A    between atoms: _140  and  _143
REMARK   55  A    between atoms: _143  and  _144
REMARK   56  A    between atoms: _144  and  _145
REMARK   57  A    between atoms: _145  and  _146
REMARK   58  A    between atoms: _146  and  _147
REMARK   59  A    between atoms: _151  and  _153
REMARK   60  A    between atoms: _153  and  _154
REMARK   61  A    between atoms: _153  and  _156
REMARK   62  A    between atoms: _156  and  _157
REMARK   63  A    between atoms: _157  and  _158
REMARK   64  A    between atoms: _160  and  _162
REMARK   65  A    between atoms: _162  and  _163
REMARK   66  A    between atoms: _162  and  _165
REMARK   67  A    between atoms: _165  and  _166
REMARK   68  A    between atoms: _171  and  _172
REMARK   69  A    between atoms: _174  and  _176
REMARK   70  A    between atoms: _176  and  _177
REMARK   71  A    between atoms: _176  and  _179
REMARK   72  A    between atoms: _179  and  _180
REMARK   73  A    between atoms: _183  and  _185
REMARK   74  A    between atoms: _185  and  _186
REMARK   75  A    between atoms: _185  and  _188
REMARK   76  A    between atoms: _188  and  _189
REMARK   77  A    between atoms: _195  and  _197
REMARK   78  A    between atoms: _197  and  _198
REMARK   79  A    between atoms: _197  and  _200
REMARK   80  A    between atoms: _200  and  _201
REMARK   81  A    between atoms: _206  and  _207
REMARK   82  A    between atoms: _209  and  _211
REMARK   83  A    between atoms: _211  and  _212
REMARK   84  A    between atoms: _214  and  _216
REMARK   85  A    between atoms: _216  and  _217
REMARK   86  A    between atoms: _219  and  _221
REMARK   87  A    between atoms: _221  and  _222
REMARK   88  A    between atoms: _221  and  _224
REMARK   89  A    between atoms: _224  and  _225
REMARK   90  A    between atoms: _235  and  _237
REMARK   91  A    between atoms: _237  and  _238
REMARK   92  A    between atoms: _237  and  _240
REMARK   93  A    between atoms: _240  and  _241
REMARK   94  A    between atoms: _246  and  _248
REMARK   95  A    between atoms: _248  and  _249
REMARK   96  A    between atoms: _248  and  _251
REMARK   97  A    between atoms: _251  and  _252
REMARK   98  A    between atoms: _257  and  _258
REMARK   99  A    between atoms: _260  and  _262
REMARK  100  A    between atoms: _262  and  _263
REMARK  101  A    between atoms: _262  and  _265
REMARK  102  A    between atoms: _265  and  _266
REMARK  103  A    between atoms: _271  and  _272
REMARK  104  A    between atoms: _274  and  _276
REMARK  105  A    between atoms: _276  and  _277
REMARK  106  A    between atoms: _276  and  _279
REMARK  107  A    between atoms: _279  and  _280
REMARK  108  A    between atoms: _280  and  _281
REMARK  109  A    between atoms: _281  and  _282
REMARK  110  A    between atoms: _291  and  _293
REMARK  111  A    between atoms: _293  and  _294
REMARK  112  A    between atoms: _293  and  _296
REMARK  113  A    between atoms: _296  and  _297
REMARK  114  A    between atoms: _297  and  _298
REMARK  115  A    between atoms: _298  and  _299
REMARK  116  A    between atoms: _299  and  _300
REMARK  117  A    between atoms: _304  and  _306
REMARK  118  A    between atoms: _306  and  _307
REMARK  119  A    between atoms: _306  and  _309
REMARK  120  A    between atoms: _309  and  _310
REMARK  121  A    between atoms: _310  and  _311
REMARK  122  A    between atoms: _314  and  _316
REMARK  123  A    between atoms: _316  and  _317
REMARK  124  A    between atoms: _316  and  _319
REMARK  125  A    between atoms: _322  and  _324
REMARK  126  A    between atoms: _324  and  _325
REMARK  127  A    between atoms: _324  and  _327
REMARK  128  A    between atoms: _327  and  _328
REMARK  129  A    between atoms: _338  and  _340
REMARK  130  A    between atoms: _340  and  _341
REMARK  131  A    between atoms: _340  and  _343
REMARK  132  A    between atoms: _343  and  _344
REMARK  133  A    between atoms: _344  and  _345
REMARK                            x       y       z     vdW  Elec       q    Type
REMARK                         _______ _______ _______ _____ _____    ______ ____
ROOT
ATOM      1  O   HOH     1      22.592 -16.420  22.248  0.00  0.00    +0.000 OA
ENDROOT
TORSDOF 0
REMARK  Name = ../refined-set-2016/3ary/3ary_pocket.pdb
REMARK  133 active torsions:
REMARK  status: ('A' for Active; 'I' for Inactive)
REMARK    1  A    between atoms: _1  and  _3
REMARK    2  A    between atoms: _3  and  _4
REMARK    3  A    between atoms: _3  and  _6
REMARK    4  A    between atoms: _6  and  _7
REMARK    5  A    between atoms: _17  and  _19
REMARK    6  A    between atoms: _19  and  _20
REMARK    7  A    between atoms: _19  and  _22
REMARK    8  A    between atoms: _22  and  _23
REMARK    9  A    between atoms: _29  and  _31
REMARK   10  A    between atoms: _31  and  _32
REMARK   11  A    between atoms: _31  and  _34
REMARK   12  A    between atoms: _34  and  _35
REMARK   13  A    between atoms: _37  and  _39
REMARK   14  A    between atoms: _39  and  _40
REMARK   15  A    between atoms: _39  and  _42
REMARK   16  A    between atoms: _45  and  _47
REMARK   17  A    between atoms: _47  and  _48
REMARK   18  A    between atoms: _47  and  _50
REMARK   19  A    between atoms: _50  and  _51
REMARK   20  A    between atoms: _53  and  _55
REMARK   21  A    between atoms: _55  and  _56
REMARK   22  A    between atoms: _55  and  _58
REMARK   23  A    between atoms: _61  and  _63
REMARK   24  A    between atoms: _63  and  _64
REMARK   25  A    between atoms: _66  and  _68
REMARK   26  A    between atoms: _68  and  _69
REMARK   27  A    between atoms: _68  and  _71
REMARK   28  A    between atoms: _71  and  _72
REMARK   29  A    between atoms: _82  and  _84
REMARK   30  A    between atoms: _84  and  _85
REMARK   31  A    between atoms: _84  and  _87
REMARK   32  A    between atoms: _87  and  _88
REMARK   33  A    between atoms: _91  and  _93
REMARK   34  A    between atoms: _93  and  _94
REMARK   35  A    between atoms: _93  and  _96
REMARK   36  A    between atoms: _96  and  _97
REMARK   37  A    between atoms: _100  and  _102
REMARK   38  A    between atoms: _102  and  _103
REMARK   39  A    between atoms: _102  and  _105
REMARK   40  A    between atoms: _105  and  _106
REMARK   41  A    between atoms: _106  and  _107
REMARK   42  A    between atoms: _110  and  _112
REMARK   43  A    between atoms: _112  and  _113
REMARK   44  A    between atoms: _112  and  _115
REMARK   45  A    between atoms: _115  and  _116
REMARK   46  A    between atoms: _122  and  _124
REMARK   47  A    between atoms: _124  and  _125
REMARK   48  A    between atoms: _127  and  _129
REMARK   49  A    between atoms: _129  and  _130
REMARK   50  A    between atoms: _132  and  _134
REMARK   51  A    between atoms: _134  and  _135
REMARK   52  A    between atoms: _138  and  _140
REMARK   53  A    between atoms: _140  and  _141
REMARK   54  A    between atoms: _140  and  _143
REMARK   55  A    between atoms: _143  and  _144
REMARK   56  A    between atoms: _144  and  _145
REMARK   57  A    between atoms: _145  and  _146
REMARK   58  A    between atoms: _146  and  _147
REMARK   59  A    between atoms: _151  and  _153
REMARK   60  A    between atoms: _153  and  _154
REMARK   61  A    between atoms: _153  and  _156
REMARK   62  A    between atoms: _156  and  _157
REMARK   63  A    between atoms: _157  and  _158
REMARK   64  A    between atoms: _160  and  _162
REMARK   65  A    between atoms: _162  and  _163
REMARK   66  A    between atoms: _162  and  _165
REMARK   67  A    between atoms: _165  and  _166
REMARK   68  A    between atoms: _171  and  _172
REMARK   69  A    between atoms: _174  and  _176
REMARK   70  A    between atoms: _176  and  _177
REMARK   71  A    between atoms: _176  and  _179
REMARK   72  A    between atoms: _179  and  _180
REMARK   73  A    between atoms: _183  and  _185
REMARK   74  A    between atoms: _185  and  _186
REMARK   75  A    between atoms: _185  and  _188
REMARK   76  A    between atoms: _188  and  _189
REMARK   77  A    between atoms: _195  and  _197
REMARK   78  A    between atoms: _197  and  _198
REMARK   79  A    between atoms: _197  and  _200
REMARK   80  A    between atoms: _200  and  _201
REMARK   81  A    between atoms: _206  and  _207
REMARK   82  A    between atoms: _209  and  _211
REMARK   83  A    between atoms: _211  and  _212
REMARK   84  A    between atoms: _214  and  _216
REMARK   85  A    between atoms: _216  and  _217
REMARK   86  A    between atoms: _219  and  _221
REMARK   87  A    between atoms: _221  and  _222
REMARK   88  A    between atoms: _221  and  _224
REMARK   89  A    between atoms: _224  and  _225
REMARK   90  A    between atoms: _235  and  _237
REMARK   91  A    between atoms: _237  and  _238
REMARK   92  A    between atoms: _237  and  _240
REMARK   93  A    between atoms: _240  and  _241
REMARK   94  A    between atoms: _246  and  _248
REMARK   95  A    between atoms: _248  and  _249
REMARK   96  A    between atoms: _248  and  _251
REMARK   97  A    between atoms: _251  and  _252
REMARK   98  A    between atoms: _257  and  _258
REMARK   99  A    between atoms: _260  and  _262
REMARK  100  A    between atoms: _262  and  _263
REMARK  101  A    between atoms: _262  and  _265
REMARK  102  A    between atoms: _265  and  _266
REMARK  103  A    between atoms: _271  and  _272
REMARK  104  A    between atoms: _274  and  _276
REMARK  105  A    between atoms: _276  and  _277
REMARK  106  A    between atoms: _276  and  _279
REMARK  107  A    between atoms: _279  and  _280
REMARK  108  A    between atoms: _280  and  _281
REMARK  109  A    between atoms: _281  and  _282
REMARK  110  A    between atoms: _291  and  _293
REMARK  111  A    between atoms: _293  and  _294
REMARK  112  A    between atoms: _293  and  _296
REMARK  113  A    between atoms: _296  and  _297
REMARK  114  A    between atoms: _297  and  _298
REMARK  115  A    between atoms: _298  and  _299
REMARK  116  A    between atoms: _299  and  _300
REMARK  117  A    between atoms: _304  and  _306
REMARK  118  A    between atoms: _306  and  _307
REMARK  119  A    between atoms: _306  and  _309
REMARK  120  A    between atoms: _309  and  _310
REMARK  121  A    between atoms: _310  and  _311
REMARK  122  A    between atoms: _314  and  _316
REMARK  123  A    between atoms: _316  and  _317
REMARK  124  A    between atoms: _316  and  _319
REMARK  125  A    between atoms: _322  and  _324
REMARK  126  A    between atoms: _324  and  _325
REMARK  127  A    between atoms: _324  and  _327
REMARK  128  A    between atoms: _327  and  _328
REMARK  129  A    between atoms: _338  and  _340
REMARK  130  A    between atoms: _340  and  _341
REMARK  131  A    between atoms: _340  and  _343
REMARK  132  A    between atoms: _343  and  _344
REMARK  133  A    between atoms: _344  and  _345
REMARK                            x       y       z     vdW  Elec       q    Type
REMARK                         _______ _______ _______ _____ _____    ______ ____
ROOT
ATOM      1  O   HOH     1      16.709 -11.517  19.117  0.00  0.00    +0.000 OA
ENDROOT
TORSDOF 0
REMARK  Name = ../refined-set-2016/3ary/3ary_pocket.pdb
REMARK  133 active torsions:
REMARK  status: ('A' for Active; 'I' for Inactive)
REMARK    1  A    between atoms: _1  and  _3
REMARK    2  A    between atoms: _3  and  _4
REMARK    3  A    between atoms: _3  and  _6
REMARK    4  A    between atoms: _6  and  _7
REMARK    5  A    between atoms: _17  and  _19
REMARK    6  A    between atoms: _19  and  _20
REMARK    7  A    between atoms: _19  and  _22
REMARK    8  A    between atoms: _22  and  _23
REMARK    9  A    between atoms: _29  and  _31
REMARK   10  A    between atoms: _31  and  _32
REMARK   11  A    between atoms: _31  and  _34
REMARK   12  A    between atoms: _34  and  _35
REMARK   13  A    between atoms: _37  and  _39
REMARK   14  A    between atoms: _39  and  _40
REMARK   15  A    between atoms: _39  and  _42
REMARK   16  A    between atoms: _45  and  _47
REMARK   17  A    between atoms: _47  and  _48
REMARK   18  A    between atoms: _47  and  _50
REMARK   19  A    between atoms: _50  and  _51
REMARK   20  A    between atoms: _53  and  _55
REMARK   21  A    between atoms: _55  and  _56
REMARK   22  A    between atoms: _55  and  _58
REMARK   23  A    between atoms: _61  and  _63
REMARK   24  A    between atoms: _63  and  _64
REMARK   25  A    between atoms: _66  and  _68
REMARK   26  A    between atoms: _68  and  _69
REMARK   27  A    between atoms: _68  and  _71
REMARK   28  A    between atoms: _71  and  _72
REMARK   29  A    between atoms: _82  and  _84
REMARK   30  A    between atoms: _84  and  _85
REMARK   31  A    between atoms: _84  and  _87
REMARK   32  A    between atoms: _87  and  _88
REMARK   33  A    between atoms: _91  and  _93
REMARK   34  A    between atoms: _93  and  _94
REMARK   35  A    between atoms: _93  and  _96
REMARK   36  A    between atoms: _96  and  _97
REMARK   37  A    between atoms: _100  and  _102
REMARK   38  A    between atoms: _102  and  _103
REMARK   39  A    between atoms: _102  and  _105
REMARK   40  A    between atoms: _105  and  _106
REMARK   41  A    between atoms: _106  and  _107
REMARK   42  A    between atoms: _110  and  _112
REMARK   43  A    between atoms: _112  and  _113
REMARK   44  A    between atoms: _112  and  _115
REMARK   45  A    between atoms: _115  and  _116
REMARK   46  A    between atoms: _122  and  _124
REMARK   47  A    between atoms: _124  and  _125
REMARK   48  A    between atoms: _127  and  _129
REMARK   49  A    between atoms: _129  and  _130
REMARK   50  A    between atoms: _132  and  _134
REMARK   51  A    between atoms: _134  and  _135
REMARK   52  A    between atoms: _138  and  _140
REMARK   53  A    between atoms: _140  and  _141
REMARK   54  A    between atoms: _140  and  _143
REMARK   55  A    between atoms: _143  and  _144
REMARK   56  A    between atoms: _144  and  _145
REMARK   57  A    between atoms: _145  and  _146
REMARK   58  A    between atoms: _146  and  _147
REMARK   59  A    between atoms: _151  and  _153
REMARK   60  A    between atoms: _153  and  _154
REMARK   61  A    between atoms: _153  and  _156
REMARK   62  A    between atoms: _156  and  _157
REMARK   63  A    between atoms: _157  and  _158
REMARK   64  A    between atoms: _160  and  _162
REMARK   65  A    between atoms: _162  and  _163
REMARK   66  A    between atoms: _162  and  _165
REMARK   67  A    between atoms: _165  and  _166
REMARK   68  A    between atoms: _171  and  _172
REMARK   69  A    between atoms: _174  and  _176
REMARK   70  A    between atoms: _176  and  _177
REMARK   71  A    between atoms: _176  and  _179
REMARK   72  A    between atoms: _179  and  _180
REMARK   73  A    between atoms: _183  and  _185
REMARK   74  A    between atoms: _185  and  _186
REMARK   75  A    between atoms: _185  and  _188
REMARK   76  A    between atoms: _188  and  _189
REMARK   77  A    between atoms: _195  and  _197
REMARK   78  A    between atoms: _197  and  _198
REMARK   79  A    between atoms: _197  and  _200
REMARK   80  A    between atoms: _200  and  _201
REMARK   81  A    between atoms: _206  and  _207
REMARK   82  A    between atoms: _209  and  _211
REMARK   83  A    between atoms: _211  and  _212
REMARK   84  A    between atoms: _214  and  _216
REMARK   85  A    between atoms: _216  and  _217
REMARK   86  A    between atoms: _219  and  _221
REMARK   87  A    between atoms: _221  and  _222
REMARK   88  A    between atoms: _221  and  _224
REMARK   89  A    between atoms: _224  and  _225
REMARK   90  A    between atoms: _235  and  _237
REMARK   91  A    between atoms: _237  and  _238
REMARK   92  A    between atoms: _237  and  _240
REMARK   93  A    between atoms: _240  and  _241
REMARK   94  A    between atoms: _246  and  _248
REMARK   95  A    between atoms: _248  and  _249
REMARK   96  A    between atoms: _248  and  _251
REMARK   97  A    between atoms: _251  and  _252
REMARK   98  A    between atoms: _257  and  _258
REMARK   99  A    between atoms: _260  and  _262
REMARK  100  A    between atoms: _262  and  _263
REMARK  101  A    between atoms: _262  and  _265
REMARK  102  A    between atoms: _265  and  _266
REMARK  103  A    between atoms: _271  and  _272
REMARK  104  A    between atoms: _274  and  _276
REMARK  105  A    between atoms: _276  and  _277
REMARK  106  A    between atoms: _276  and  _279
REMARK  107  A    between atoms: _279  and  _280
REMARK  108  A    between atoms: _280  and  _281
REMARK  109  A    between atoms: _281  and  _282
REMARK  110  A    between atoms: _291  and  _293
REMARK  111  A    between atoms: _293  and  _294
REMARK  112  A    between atoms: _293  and  _296
REMARK  113  A    between atoms: _296  and  _297
REMARK  114  A    between atoms: _297  and  _298
REMARK  115  A    between atoms: _298  and  _299
REMARK  116  A    between atoms: _299  and  _300
REMARK  117  A    between atoms: _304  and  _306
REMARK  118  A    between atoms: _306  and  _307
REMARK  119  A    between atoms: _306  and  _309
REMARK  120  A    between atoms: _309  and  _310
REMARK  121  A    between atoms: _310  and  _311
REMARK  122  A    between atoms: _314  and  _316
REMARK  123  A    between atoms: _316  and  _317
REMARK  124  A    between atoms: _316  and  _319
REMARK  125  A    between atoms: _322  and  _324
REMARK  126  A    between atoms: _324  and  _325
REMARK  127  A    between atoms: _324  and  _327
REMARK  128  A    between atoms: _327  and  _328
REMARK  129  A    between atoms: _338  and  _340
REMARK  130  A    between atoms: _340  and  _341
REMARK  131  A    between atoms: _340  and  _343
REMARK  132  A    between atoms: _343  and  _344
REMARK  133  A    between atoms: _344  and  _345
REMARK                            x       y       z     vdW  Elec       q    Type
REMARK                         _______ _______ _______ _____ _____    ______ ____
ROOT
ATOM      1  O   HOH     1       9.698  -9.054  26.789  0.00  0.00    +0.000 OA
ENDROOT
TORSDOF 0
REMARK  Name = ../refined-set-2016/3ary/3ary_pocket.pdb
REMARK  133 active torsions:
REMARK  status: ('A' for Active; 'I' for Inactive)
REMARK    1  A    between atoms: _1  and  _3
REMARK    2  A    between atoms: _3  and  _4
REMARK    3  A    between atoms: _3  and  _6
REMARK    4  A    between atoms: _6  and  _7
REMARK    5  A    between atoms: _17  and  _19
REMARK    6  A    between atoms: _19  and  _20
REMARK    7  A    between atoms: _19  and  _22
REMARK    8  A    between atoms: _22  and  _23
REMARK    9  A    between atoms: _29  and  _31
REMARK   10  A    between atoms: _31  and  _32
REMARK   11  A    between atoms: _31  and  _34
REMARK   12  A    between atoms: _34  and  _35
REMARK   13  A    between atoms: _37  and  _39
REMARK   14  A    between atoms: _39  and  _40
REMARK   15  A    between atoms: _39  and  _42
REMARK   16  A    between atoms: _45  and  _47
REMARK   17  A    between atoms: _47  and  _48
REMARK   18  A    between atoms: _47  and  _50
REMARK   19  A    between atoms: _50  and  _51
REMARK   20  A    between atoms: _53  and  _55
REMARK   21  A    between atoms: _55  and  _56
REMARK   22  A    between atoms: _55  and  _58
REMARK   23  A    between atoms: _61  and  _63
REMARK   24  A    between atoms: _63  and  _64
REMARK   25  A    between atoms: _66  and  _68
REMARK   26  A    between atoms: _68  and  _69
REMARK   27  A    between atoms: _68  and  _71
REMARK   28  A    between atoms: _71  and  _72
REMARK   29  A    between atoms: _82  and  _84
REMARK   30  A    between atoms: _84  and  _85
REMARK   31  A    between atoms: _84  and  _87
REMARK   32  A    between atoms: _87  and  _88
REMARK   33  A    between atoms: _91  and  _93
REMARK   34  A    between atoms: _93  and  _94
REMARK   35  A    between atoms: _93  and  _96
REMARK   36  A    between atoms: _96  and  _97
REMARK   37  A    between atoms: _100  and  _102
REMARK   38  A    between atoms: _102  and  _103
REMARK   39  A    between atoms: _102  and  _105
REMARK   40  A    between atoms: _105  and  _106
REMARK   41  A    between atoms: _106  and  _107
REMARK   42  A    between atoms: _110  and  _112
REMARK   43  A    between atoms: _112  and  _113
REMARK   44  A    between atoms: _112  and  _115
REMARK   45  A    between atoms: _115  and  _116
REMARK   46  A    between atoms: _122  and  _124
REMARK   47  A    between atoms: _124  and  _125
REMARK   48  A    between atoms: _127  and  _129
REMARK   49  A    between atoms: _129  and  _130
REMARK   50  A    between atoms: _132  and  _134
REMARK   51  A    between atoms: _134  and  _135
REMARK   52  A    between atoms: _138  and  _140
REMARK   53  A    between atoms: _140  and  _141
REMARK   54  A    between atoms: _140  and  _143
REMARK   55  A    between atoms: _143  and  _144
REMARK   56  A    between atoms: _144  and  _145
REMARK   57  A    between atoms: _145  and  _146
REMARK   58  A    between atoms: _146  and  _147
REMARK   59  A    between atoms: _151  and  _153
REMARK   60  A    between atoms: _153  and  _154
REMARK   61  A    between atoms: _153  and  _156
REMARK   62  A    between atoms: _156  and  _157
REMARK   63  A    between atoms: _157  and  _158
REMARK   64  A    between atoms: _160  and  _162
REMARK   65  A    between atoms: _162  and  _163
REMARK   66  A    between atoms: _162  and  _165
REMARK   67  A    between atoms: _165  and  _166
REMARK   68  A    between atoms: _171  and  _172
REMARK   69  A    between atoms: _174  and  _176
REMARK   70  A    between atoms: _176  and  _177
REMARK   71  A    between atoms: _176  and  _179
REMARK   72  A    between atoms: _179  and  _180
REMARK   73  A    between atoms: _183  and  _185
REMARK   74  A    between atoms: _185  and  _186
REMARK   75  A    between atoms: _185  and  _188
REMARK   76  A    between atoms: _188  and  _189
REMARK   77  A    between atoms: _195  and  _197
REMARK   78  A    between atoms: _197  and  _198
REMARK   79  A    between atoms: _197  and  _200
REMARK   80  A    between atoms: _200  and  _201
REMARK   81  A    between atoms: _206  and  _207
REMARK   82  A    between atoms: _209  and  _211
REMARK   83  A    between atoms: _211  and  _212
REMARK   84  A    between atoms: _214  and  _216
REMARK   85  A    between atoms: _216  and  _217
REMARK   86  A    between atoms: _219  and  _221
REMARK   87  A    between atoms: _221  and  _222
REMARK   88  A    between atoms: _221  and  _224
REMARK   89  A    between atoms: _224  and  _225
REMARK   90  A    between atoms: _235  and  _237
REMARK   91  A    between atoms: _237  and  _238
REMARK   92  A    between atoms: _237  and  _240
REMARK   93  A    between atoms: _240  and  _241
REMARK   94  A    between atoms: _246  and  _248
REMARK   95  A    between atoms: _248  and  _249
REMARK   96  A    between atoms: _248  and  _251
REMARK   97  A    between atoms: _251  and  _252
REMARK   98  A    between atoms: _257  and  _258
REMARK   99  A    between atoms: _260  and  _262
REMARK  100  A    between atoms: _262  and  _263
REMARK  101  A    between atoms: _262  and  _265
REMARK  102  A    between atoms: _265  and  _266
REMARK  103  A    between atoms: _271  and  _272
REMARK  104  A    between atoms: _274  and  _276
REMARK  105  A    between atoms: _276  and  _277
REMARK  106  A    between atoms: _276  and  _279
REMARK  107  A    between atoms: _279  and  _280
REMARK  108  A    between atoms: _280  and  _281
REMARK  109  A    between atoms: _281  and  _282
REMARK  110  A    between atoms: _291  and  _293
REMARK  111  A    between atoms: _293  and  _294
REMARK  112  A    between atoms: _293  and  _296
REMARK  113  A    between atoms: _296  and  _297
REMARK  114  A    between atoms: _297  and  _298
REMARK  115  A    between atoms: _298  and  _299
REMARK  116  A    between atoms: _299  and  _300
REMARK  117  A    between atoms: _304  and  _306
REMARK  118  A    between atoms: _306  and  _307
REMARK  119  A    between atoms: _306  and  _309
REMARK  120  A    between atoms: _309  and  _310
REMARK  121  A    between atoms: _310  and  _311
REMARK  122  A    between atoms: _314  and  _316
REMARK  123  A    between atoms: _316  and  _317
REMARK  124  A    between atoms: _316  and  _319
REMARK  125  A    between atoms: _322  and  _324
REMARK  126  A    between atoms: _324  and  _325
REMARK  127  A    between atoms: _324  and  _327
REMARK  128  A    between atoms: _327  and  _328
REMARK  129  A    between atoms: _338  and  _340
REMARK  130  A    between atoms: _340  and  _341
REMARK  131  A    between atoms: _340  and  _343
REMARK  132  A    between atoms: _343  and  _344
REMARK  133  A    between atoms: _344  and  _345
REMARK                            x       y       z     vdW  Elec       q    Type
REMARK                         _______ _______ _______ _____ _____    ______ ____
ROOT
ATOM      1  O   HOH     1       9.247  -8.445  32.325  0.00  0.00    +0.000 OA
ENDROOT
TORSDOF 0
REMARK  Name = ../refined-set-2016/3ary/3ary_pocket.pdb
REMARK  133 active torsions:
REMARK  status: ('A' for Active; 'I' for Inactive)
REMARK    1  A    between atoms: _1  and  _3
REMARK    2  A    between atoms: _3  and  _4
REMARK    3  A    between atoms: _3  and  _6
REMARK    4  A    between atoms: _6  and  _7
REMARK    5  A    between atoms: _17  and  _19
REMARK    6  A    between atoms: _19  and  _20
REMARK    7  A    between atoms: _19  and  _22
REMARK    8  A    between atoms: _22  and  _23
REMARK    9  A    between atoms: _29  and  _31
REMARK   10  A    between atoms: _31  and  _32
REMARK   11  A    between atoms: _31  and  _34
REMARK   12  A    between atoms: _34  and  _35
REMARK   13  A    between atoms: _37  and  _39
REMARK   14  A    between atoms: _39  and  _40
REMARK   15  A    between atoms: _39  and  _42
REMARK   16  A    between atoms: _45  and  _47
REMARK   17  A    between atoms: _47  and  _48
REMARK   18  A    between atoms: _47  and  _50
REMARK   19  A    between atoms: _50  and  _51
REMARK   20  A    between atoms: _53  and  _55
REMARK   21  A    between atoms: _55  and  _56
REMARK   22  A    between atoms: _55  and  _58
REMARK   23  A    between atoms: _61  and  _63
REMARK   24  A    between atoms: _63  and  _64
REMARK   25  A    between atoms: _66  and  _68
REMARK   26  A    between atoms: _68  and  _69
REMARK   27  A    between atoms: _68  and  _71
REMARK   28  A    between atoms: _71  and  _72
REMARK   29  A    between atoms: _82  and  _84
REMARK   30  A    between atoms: _84  and  _85
REMARK   31  A    between atoms: _84  and  _87
REMARK   32  A    between atoms: _87  and  _88
REMARK   33  A    between atoms: _91  and  _93
REMARK   34  A    between atoms: _93  and  _94
REMARK   35  A    between atoms: _93  and  _96
REMARK   36  A    between atoms: _96  and  _97
REMARK   37  A    between atoms: _100  and  _102
REMARK   38  A    between atoms: _102  and  _103
REMARK   39  A    between atoms: _102  and  _105
REMARK   40  A    between atoms: _105  and  _106
REMARK   41  A    between atoms: _106  and  _107
REMARK   42  A    between atoms: _110  and  _112
REMARK   43  A    between atoms: _112  and  _113
REMARK   44  A    between atoms: _112  and  _115
REMARK   45  A    between atoms: _115  and  _116
REMARK   46  A    between atoms: _122  and  _124
REMARK   47  A    between atoms: _124  and  _125
REMARK   48  A    between atoms: _127  and  _129
REMARK   49  A    between atoms: _129  and  _130
REMARK   50  A    between atoms: _132  and  _134
REMARK   51  A    between atoms: _134  and  _135
REMARK   52  A    between atoms: _138  and  _140
REMARK   53  A    between atoms: _140  and  _141
REMARK   54  A    between atoms: _140  and  _143
REMARK   55  A    between atoms: _143  and  _144
REMARK   56  A    between atoms: _144  and  _145
REMARK   57  A    between atoms: _145  and  _146
REMARK   58  A    between atoms: _146  and  _147
REMARK   59  A    between atoms: _151  and  _153
REMARK   60  A    between atoms: _153  and  _154
REMARK   61  A    between atoms: _153  and  _156
REMARK   62  A    between atoms: _156  and  _157
REMARK   63  A    between atoms: _157  and  _158
REMARK   64  A    between atoms: _160  and  _162
REMARK   65  A    between atoms: _162  and  _163
REMARK   66  A    between atoms: _162  and  _165
REMARK   67  A    between atoms: _165  and  _166
REMARK   68  A    between atoms: _171  and  _172
REMARK   69  A    between atoms: _174  and  _176
REMARK   70  A    between atoms: _176  and  _177
REMARK   71  A    between atoms: _176  and  _179
REMARK   72  A    between atoms: _179  and  _180
REMARK   73  A    between atoms: _183  and  _185
REMARK   74  A    between atoms: _185  and  _186
REMARK   75  A    between atoms: _185  and  _188
REMARK   76  A    between atoms: _188  and  _189
REMARK   77  A    between atoms: _195  and  _197
REMARK   78  A    between atoms: _197  and  _198
REMARK   79  A    between atoms: _197  and  _200
REMARK   80  A    between atoms: _200  and  _201
REMARK   81  A    between atoms: _206  and  _207
REMARK   82  A    between atoms: _209  and  _211
REMARK   83  A    between atoms: _211  and  _212
REMARK   84  A    between atoms: _214  and  _216
REMARK   85  A    between atoms: _216  and  _217
REMARK   86  A    between atoms: _219  and  _221
REMARK   87  A    between atoms: _221  and  _222
REMARK   88  A    between atoms: _221  and  _224
REMARK   89  A    between atoms: _224  and  _225
REMARK   90  A    between atoms: _235  and  _237
REMARK   91  A    between atoms: _237  and  _238
REMARK   92  A    between atoms: _237  and  _240
REMARK   93  A    between atoms: _240  and  _241
REMARK   94  A    between atoms: _246  and  _248
REMARK   95  A    between atoms: _248  and  _249
REMARK   96  A    between atoms: _248  and  _251
REMARK   97  A    between atoms: _251  and  _252
REMARK   98  A    between atoms: _257  and  _258
REMARK   99  A    between atoms: _260  and  _262
REMARK  100  A    between atoms: _262  and  _263
REMARK  101  A    between atoms: _262  and  _265
REMARK  102  A    between atoms: _265  and  _266
REMARK  103  A    between atoms: _271  and  _272
REMARK  104  A    between atoms: _274  and  _276
REMARK  105  A    between atoms: _276  and  _277
REMARK  106  A    between atoms: _276  and  _279
REMARK  107  A    between atoms: _279  and  _280
REMARK  108  A    between atoms: _280  and  _281
REMARK  109  A    between atoms: _281  and  _282
REMARK  110  A    between atoms: _291  and  _293
REMARK  111  A    between atoms: _293  and  _294
REMARK  112  A    between atoms: _293  and  _296
REMARK  113  A    between atoms: _296  and  _297
REMARK  114  A    between atoms: _297  and  _298
REMARK  115  A    between atoms: _298  and  _299
REMARK  116  A    between atoms: _299  and  _300
REMARK  117  A    between atoms: _304  and  _306
REMARK  118  A    between atoms: _306  and  _307
REMARK  119  A    between atoms: _306  and  _309
REMARK  120  A    between atoms: _309  and  _310
REMARK  121  A    between atoms: _310  and  _311
REMARK  122  A    between atoms: _314  and  _316
REMARK  123  A    between atoms: _316  and  _317
REMARK  124  A    between atoms: _316  and  _319
REMARK  125  A    between atoms: _322  and  _324
REMARK  126  A    between atoms: _324  and  _325
REMARK  127  A    between atoms: _324  and  _327
REMARK  128  A    between atoms: _327  and  _328
REMARK  129  A    between atoms: _338  and  _340
REMARK  130  A    between atoms: _340  and  _341
REMARK  131  A    between atoms: _340  and  _343
REMARK  132  A    between atoms: _343  and  _344
REMARK  133  A    between atoms: _344  and  _345
REMARK                            x       y       z     vdW  Elec       q    Type
REMARK                         _______ _______ _______ _____ _____    ______ ____
ROOT
ATOM      1  O   HOH     1      14.385 -15.784  26.032  0.00  0.00    +0.000 OA
ENDROOT
TORSDOF 0
REMARK  Name = ../refined-set-2016/3ary/3ary_pocket.pdb
REMARK  133 active torsions:
REMARK  status: ('A' for Active; 'I' for Inactive)
REMARK    1  A    between atoms: _1  and  _3
REMARK    2  A    between atoms: _3  and  _4
REMARK    3  A    between atoms: _3  and  _6
REMARK    4  A    between atoms: _6  and  _7
REMARK    5  A    between atoms: _17  and  _19
REMARK    6  A    between atoms: _19  and  _20
REMARK    7  A    between atoms: _19  and  _22
REMARK    8  A    between atoms: _22  and  _23
REMARK    9  A    between atoms: _29  and  _31
REMARK   10  A    between atoms: _31  and  _32
REMARK   11  A    between atoms: _31  and  _34
REMARK   12  A    between atoms: _34  and  _35
REMARK   13  A    between atoms: _37  and  _39
REMARK   14  A    between atoms: _39  and  _40
REMARK   15  A    between atoms: _39  and  _42
REMARK   16  A    between atoms: _45  and  _47
REMARK   17  A    between atoms: _47  and  _48
REMARK   18  A    between atoms: _47  and  _50
REMARK   19  A    between atoms: _50  and  _51
REMARK   20  A    between atoms: _53  and  _55
REMARK   21  A    between atoms: _55  and  _56
REMARK   22  A    between atoms: _55  and  _58
REMARK   23  A    between atoms: _61  and  _63
REMARK   24  A    between atoms: _63  and  _64
REMARK   25  A    between atoms: _66  and  _68
REMARK   26  A    between atoms: _68  and  _69
REMARK   27  A    between atoms: _68  and  _71
REMARK   28  A    between atoms: _71  and  _72
REMARK   29  A    between atoms: _82  and  _84
REMARK   30  A    between atoms: _84  and  _85
REMARK   31  A    between atoms: _84  and  _87
REMARK   32  A    between atoms: _87  and  _88
REMARK   33  A    between atoms: _91  and  _93
REMARK   34  A    between atoms: _93  and  _94
REMARK   35  A    between atoms: _93  and  _96
REMARK   36  A    between atoms: _96  and  _97
REMARK   37  A    between atoms: _100  and  _102
REMARK   38  A    between atoms: _102  and  _103
REMARK   39  A    between atoms: _102  and  _105
REMARK   40  A    between atoms: _105  and  _106
REMARK   41  A    between atoms: _106  and  _107
REMARK   42  A    between atoms: _110  and  _112
REMARK   43  A    between atoms: _112  and  _113
REMARK   44  A    between atoms: _112  and  _115
REMARK   45  A    between atoms: _115  and  _116
REMARK   46  A    between atoms: _122  and  _124
REMARK   47  A    between atoms: _124  and  _125
REMARK   48  A    between atoms: _127  and  _129
REMARK   49  A    between atoms: _129  and  _130
REMARK   50  A    between atoms: _132  and  _134
REMARK   51  A    between atoms: _134  and  _135
REMARK   52  A    between atoms: _138  and  _140
REMARK   53  A    between atoms: _140  and  _141
REMARK   54  A    between atoms: _140  and  _143
REMARK   55  A    between atoms: _143  and  _144
REMARK   56  A    between atoms: _144  and  _145
REMARK   57  A    between atoms: _145  and  _146
REMARK   58  A    between atoms: _146  and  _147
REMARK   59  A    between atoms: _151  and  _153
REMARK   60  A    between atoms: _153  and  _154
REMARK   61  A    between atoms: _153  and  _156
REMARK   62  A    between atoms: _156  and  _157
REMARK   63  A    between atoms: _157  and  _158
REMARK   64  A    between atoms: _160  and  _162
REMARK   65  A    between atoms: _162  and  _163
REMARK   66  A    between atoms: _162  and  _165
REMARK   67  A    between atoms: _165  and  _166
REMARK   68  A    between atoms: _171  and  _172
REMARK   69  A    between atoms: _174  and  _176
REMARK   70  A    between atoms: _176  and  _177
REMARK   71  A    between atoms: _176  and  _179
REMARK   72  A    between atoms: _179  and  _180
REMARK   73  A    between atoms: _183  and  _185
REMARK   74  A    between atoms: _185  and  _186
REMARK   75  A    between atoms: _185  and  _188
REMARK   76  A    between atoms: _188  and  _189
REMARK   77  A    between atoms: _195  and  _197
REMARK   78  A    between atoms: _197  and  _198
REMARK   79  A    between atoms: _197  and  _200
REMARK   80  A    between atoms: _200  and  _201
REMARK   81  A    between atoms: _206  and  _207
REMARK   82  A    between atoms: _209  and  _211
REMARK   83  A    between atoms: _211  and  _212
REMARK   84  A    between atoms: _214  and  _216
REMARK   85  A    between atoms: _216  and  _217
REMARK   86  A    between atoms: _219  and  _221
REMARK   87  A    between atoms: _221  and  _222
REMARK   88  A    between atoms: _221  and  _224
REMARK   89  A    between atoms: _224  and  _225
REMARK   90  A    between atoms: _235  and  _237
REMARK   91  A    between atoms: _237  and  _238
REMARK   92  A    between atoms: _237  and  _240
REMARK   93  A    between atoms: _240  and  _241
REMARK   94  A    between atoms: _246  and  _248
REMARK   95  A    between atoms: _248  and  _249
REMARK   96  A    between atoms: _248  and  _251
REMARK   97  A    between atoms: _251  and  _252
REMARK   98  A    between atoms: _257  and  _258
REMARK   99  A    between atoms: _260  and  _262
REMARK  100  A    between atoms: _262  and  _263
REMARK  101  A    between atoms: _262  and  _265
REMARK  102  A    between atoms: _265  and  _266
REMARK  103  A    between atoms: _271  and  _272
REMARK  104  A    between atoms: _274  and  _276
REMARK  105  A    between atoms: _276  and  _277
REMARK  106  A    between atoms: _276  and  _279
REMARK  107  A    between atoms: _279  and  _280
REMARK  108  A    between atoms: _280  and  _281
REMARK  109  A    between atoms: _281  and  _282
REMARK  110  A    between atoms: _291  and  _293
REMARK  111  A    between atoms: _293  and  _294
REMARK  112  A    between atoms: _293  and  _296
REMARK  113  A    between atoms: _296  and  _297
REMARK  114  A    between atoms: _297  and  _298
REMARK  115  A    between atoms: _298  and  _299
REMARK  116  A    between atoms: _299  and  _300
REMARK  117  A    between atoms: _304  and  _306
REMARK  118  A    between atoms: _306  and  _307
REMARK  119  A    between atoms: _306  and  _309
REMARK  120  A    between atoms: _309  and  _310
REMARK  121  A    between atoms: _310  and  _311
REMARK  122  A    between atoms: _314  and  _316
REMARK  123  A    between atoms: _316  and  _317
REMARK  124  A    between atoms: _316  and  _319
REMARK  125  A    between atoms: _322  and  _324
REMARK  126  A    between atoms: _324  and  _325
REMARK  127  A    between atoms: _324  and  _327
REMARK  128  A    between atoms: _327  and  _328
REMARK  129  A    between atoms: _338  and  _340
REMARK  130  A    between atoms: _340  and  _341
REMARK  131  A    between atoms: _340  and  _343
REMARK  132  A    between atoms: _343  and  _344
REMARK  133  A    between atoms: _344  and  _345
REMARK                            x       y       z     vdW  Elec       q    Type
REMARK                         _______ _______ _______ _____ _____    ______ ____
ROOT
ATOM      1  O   HOH     1      23.688  -6.177  15.105  0.00  0.00    +0.000 OA
ENDROOT
TORSDOF 0
REMARK  Name = ../refined-set-2016/3ary/3ary_pocket.pdb
REMARK  133 active torsions:
REMARK  status: ('A' for Active; 'I' for Inactive)
REMARK    1  A    between atoms: _1  and  _3
REMARK    2  A    between atoms: _3  and  _4
REMARK    3  A    between atoms: _3  and  _6
REMARK    4  A    between atoms: _6  and  _7
REMARK    5  A    between atoms: _17  and  _19
REMARK    6  A    between atoms: _19  and  _20
REMARK    7  A    between atoms: _19  and  _22
REMARK    8  A    between atoms: _22  and  _23
REMARK    9  A    between atoms: _29  and  _31
REMARK   10  A    between atoms: _31  and  _32
REMARK   11  A    between atoms: _31  and  _34
REMARK   12  A    between atoms: _34  and  _35
REMARK   13  A    between atoms: _37  and  _39
REMARK   14  A    between atoms: _39  and  _40
REMARK   15  A    between atoms: _39  and  _42
REMARK   16  A    between atoms: _45  and  _47
REMARK   17  A    between atoms: _47  and  _48
REMARK   18  A    between atoms: _47  and  _50
REMARK   19  A    between atoms: _50  and  _51
REMARK   20  A    between atoms: _53  and  _55
REMARK   21  A    between atoms: _55  and  _56
REMARK   22  A    between atoms: _55  and  _58
REMARK   23  A    between atoms: _61  and  _63
REMARK   24  A    between atoms: _63  and  _64
REMARK   25  A    between atoms: _66  and  _68
REMARK   26  A    between atoms: _68  and  _69
REMARK   27  A    between atoms: _68  and  _71
REMARK   28  A    between atoms: _71  and  _72
REMARK   29  A    between atoms: _82  and  _84
REMARK   30  A    between atoms: _84  and  _85
REMARK   31  A    between atoms: _84  and  _87
REMARK   32  A    between atoms: _87  and  _88
REMARK   33  A    between atoms: _91  and  _93
REMARK   34  A    between atoms: _93  and  _94
REMARK   35  A    between atoms: _93  and  _96
REMARK   36  A    between atoms: _96  and  _97
REMARK   37  A    between atoms: _100  and  _102
REMARK   38  A    between atoms: _102  and  _103
REMARK   39  A    between atoms: _102  and  _105
REMARK   40  A    between atoms: _105  and  _106
REMARK   41  A    between atoms: _106  and  _107
REMARK   42  A    between atoms: _110  and  _112
REMARK   43  A    between atoms: _112  and  _113
REMARK   44  A    between atoms: _112  and  _115
REMARK   45  A    between atoms: _115  and  _116
REMARK   46  A    between atoms: _122  and  _124
REMARK   47  A    between atoms: _124  and  _125
REMARK   48  A    between atoms: _127  and  _129
REMARK   49  A    between atoms: _129  and  _130
REMARK   50  A    between atoms: _132  and  _134
REMARK   51  A    between atoms: _134  and  _135
REMARK   52  A    between atoms: _138  and  _140
REMARK   53  A    between atoms: _140  and  _141
REMARK   54  A    between atoms: _140  and  _143
REMARK   55  A    between atoms: _143  and  _144
REMARK   56  A    between atoms: _144  and  _145
REMARK   57  A    between atoms: _145  and  _146
REMARK   58  A    between atoms: _146  and  _147
REMARK   59  A    between atoms: _151  and  _153
REMARK   60  A    between atoms: _153  and  _154
REMARK   61  A    between atoms: _153  and  _156
REMARK   62  A    between atoms: _156  and  _157
REMARK   63  A    between atoms: _157  and  _158
REMARK   64  A    between atoms: _160  and  _162
REMARK   65  A    between atoms: _162  and  _163
REMARK   66  A    between atoms: _162  and  _165
REMARK   67  A    between atoms: _165  and  _166
REMARK   68  A    between atoms: _171  and  _172
REMARK   69  A    between atoms: _174  and  _176
REMARK   70  A    between atoms: _176  and  _177
REMARK   71  A    between atoms: _176  and  _179
REMARK   72  A    between atoms: _179  and  _180
REMARK   73  A    between atoms: _183  and  _185
REMARK   74  A    between atoms: _185  and  _186
REMARK   75  A    between atoms: _185  and  _188
REMARK   76  A    between atoms: _188  and  _189
REMARK   77  A    between atoms: _195  and  _197
REMARK   78  A    between atoms: _197  and  _198
REMARK   79  A    between atoms: _197  and  _200
REMARK   80  A    between atoms: _200  and  _201
REMARK   81  A    between atoms: _206  and  _207
REMARK   82  A    between atoms: _209  and  _211
REMARK   83  A    between atoms: _211  and  _212
REMARK   84  A    between atoms: _214  and  _216
REMARK   85  A    between atoms: _216  and  _217
REMARK   86  A    between atoms: _219  and  _221
REMARK   87  A    between atoms: _221  and  _222
REMARK   88  A    between atoms: _221  and  _224
REMARK   89  A    between atoms: _224  and  _225
REMARK   90  A    between atoms: _235  and  _237
REMARK   91  A    between atoms: _237  and  _238
REMARK   92  A    between atoms: _237  and  _240
REMARK   93  A    between atoms: _240  and  _241
REMARK   94  A    between atoms: _246  and  _248
REMARK   95  A    between atoms: _248  and  _249
REMARK   96  A    between atoms: _248  and  _251
REMARK   97  A    between atoms: _251  and  _252
REMARK   98  A    between atoms: _257  and  _258
REMARK   99  A    between atoms: _260  and  _262
REMARK  100  A    between atoms: _262  and  _263
REMARK  101  A    between atoms: _262  and  _265
REMARK  102  A    between atoms: _265  and  _266
REMARK  103  A    between atoms: _271  and  _272
REMARK  104  A    between atoms: _274  and  _276
REMARK  105  A    between atoms: _276  and  _277
REMARK  106  A    between atoms: _276  and  _279
REMARK  107  A    between atoms: _279  and  _280
REMARK  108  A    between atoms: _280  and  _281
REMARK  109  A    between atoms: _281  and  _282
REMARK  110  A    between atoms: _291  and  _293
REMARK  111  A    between atoms: _293  and  _294
REMARK  112  A    between atoms: _293  and  _296
REMARK  113  A    between atoms: _296  and  _297
REMARK  114  A    between atoms: _297  and  _298
REMARK  115  A    between atoms: _298  and  _299
REMARK  116  A    between atoms: _299  and  _300
REMARK  117  A    between atoms: _304  and  _306
REMARK  118  A    between atoms: _306  and  _307
REMARK  119  A    between atoms: _306  and  _309
REMARK  120  A    between atoms: _309  and  _310
REMARK  121  A    between atoms: _310  and  _311
REMARK  122  A    between atoms: _314  and  _316
REMARK  123  A    between atoms: _316  and  _317
REMARK  124  A    between atoms: _316  and  _319
REMARK  125  A    between atoms: _322  and  _324
REMARK  126  A    between atoms: _324  and  _325
REMARK  127  A    between atoms: _324  and  _327
REMARK  128  A    between atoms: _327  and  _328
REMARK  129  A    between atoms: _338  and  _340
REMARK  130  A    between atoms: _340  and  _341
REMARK  131  A    between atoms: _340  and  _343
REMARK  132  A    between atoms: _343  and  _344
REMARK  133  A    between atoms: _344  and  _345
REMARK                            x       y       z     vdW  Elec       q    Type
REMARK                         _______ _______ _______ _____ _____    ______ ____
ROOT
ATOM      1  O   HOH     1      24.637  -8.682  14.324  0.00  0.00    +0.000 OA
ENDROOT
TORSDOF 0
REMARK  Name = ../refined-set-2016/3ary/3ary_pocket.pdb
REMARK  133 active torsions:
REMARK  status: ('A' for Active; 'I' for Inactive)
REMARK    1  A    between atoms: _1  and  _3
REMARK    2  A    between atoms: _3  and  _4
REMARK    3  A    between atoms: _3  and  _6
REMARK    4  A    between atoms: _6  and  _7
REMARK    5  A    between atoms: _17  and  _19
REMARK    6  A    between atoms: _19  and  _20
REMARK    7  A    between atoms: _19  and  _22
REMARK    8  A    between atoms: _22  and  _23
REMARK    9  A    between atoms: _29  and  _31
REMARK   10  A    between atoms: _31  and  _32
REMARK   11  A    between atoms: _31  and  _34
REMARK   12  A    between atoms: _34  and  _35
REMARK   13  A    between atoms: _37  and  _39
REMARK   14  A    between atoms: _39  and  _40
REMARK   15  A    between atoms: _39  and  _42
REMARK   16  A    between atoms: _45  and  _47
REMARK   17  A    between atoms: _47  and  _48
REMARK   18  A    between atoms: _47  and  _50
REMARK   19  A    between atoms: _50  and  _51
REMARK   20  A    between atoms: _53  and  _55
REMARK   21  A    between atoms: _55  and  _56
REMARK   22  A    between atoms: _55  and  _58
REMARK   23  A    between atoms: _61  and  _63
REMARK   24  A    between atoms: _63  and  _64
REMARK   25  A    between atoms: _66  and  _68
REMARK   26  A    between atoms: _68  and  _69
REMARK   27  A    between atoms: _68  and  _71
REMARK   28  A    between atoms: _71  and  _72
REMARK   29  A    between atoms: _82  and  _84
REMARK   30  A    between atoms: _84  and  _85
REMARK   31  A    between atoms: _84  and  _87
REMARK   32  A    between atoms: _87  and  _88
REMARK   33  A    between atoms: _91  and  _93
REMARK   34  A    between atoms: _93  and  _94
REMARK   35  A    between atoms: _93  and  _96
REMARK   36  A    between atoms: _96  and  _97
REMARK   37  A    between atoms: _100  and  _102
REMARK   38  A    between atoms: _102  and  _103
REMARK   39  A    between atoms: _102  and  _105
REMARK   40  A    between atoms: _105  and  _106
REMARK   41  A    between atoms: _106  and  _107
REMARK   42  A    between atoms: _110  and  _112
REMARK   43  A    between atoms: _112  and  _113
REMARK   44  A    between atoms: _112  and  _115
REMARK   45  A    between atoms: _115  and  _116
REMARK   46  A    between atoms: _122  and  _124
REMARK   47  A    between atoms: _124  and  _125
REMARK   48  A    between atoms: _127  and  _129
REMARK   49  A    between atoms: _129  and  _130
REMARK   50  A    between atoms: _132  and  _134
REMARK   51  A    between atoms: _134  and  _135
REMARK   52  A    between atoms: _138  and  _140
REMARK   53  A    between atoms: _140  and  _141
REMARK   54  A    between atoms: _140  and  _143
REMARK   55  A    between atoms: _143  and  _144
REMARK   56  A    between atoms: _144  and  _145
REMARK   57  A    between atoms: _145  and  _146
REMARK   58  A    between atoms: _146  and  _147
REMARK   59  A    between atoms: _151  and  _153
REMARK   60  A    between atoms: _153  and  _154
REMARK   61  A    between atoms: _153  and  _156
REMARK   62  A    between atoms: _156  and  _157
REMARK   63  A    between atoms: _157  and  _158
REMARK   64  A    between atoms: _160  and  _162
REMARK   65  A    between atoms: _162  and  _163
REMARK   66  A    between atoms: _162  and  _165
REMARK   67  A    between atoms: _165  and  _166
REMARK   68  A    between atoms: _171  and  _172
REMARK   69  A    between atoms: _174  and  _176
REMARK   70  A    between atoms: _176  and  _177
REMARK   71  A    between atoms: _176  and  _179
REMARK   72  A    between atoms: _179  and  _180
REMARK   73  A    between atoms: _183  and  _185
REMARK   74  A    between atoms: _185  and  _186
REMARK   75  A    between atoms: _185  and  _188
REMARK   76  A    between atoms: _188  and  _189
REMARK   77  A    between atoms: _195  and  _197
REMARK   78  A    between atoms: _197  and  _198
REMARK   79  A    between atoms: _197  and  _200
REMARK   80  A    between atoms: _200  and  _201
REMARK   81  A    between atoms: _206  and  _207
REMARK   82  A    between atoms: _209  and  _211
REMARK   83  A    between atoms: _211  and  _212
REMARK   84  A    between atoms: _214  and  _216
REMARK   85  A    between atoms: _216  and  _217
REMARK   86  A    between atoms: _219  and  _221
REMARK   87  A    between atoms: _221  and  _222
REMARK   88  A    between atoms: _221  and  _224
REMARK   89  A    between atoms: _224  and  _225
REMARK   90  A    between atoms: _235  and  _237
REMARK   91  A    between atoms: _237  and  _238
REMARK   92  A    between atoms: _237  and  _240
REMARK   93  A    between atoms: _240  and  _241
REMARK   94  A    between atoms: _246  and  _248
REMARK   95  A    between atoms: _248  and  _249
REMARK   96  A    between atoms: _248  and  _251
REMARK   97  A    between atoms: _251  and  _252
REMARK   98  A    between atoms: _257  and  _258
REMARK   99  A    between atoms: _260  and  _262
REMARK  100  A    between atoms: _262  and  _263
REMARK  101  A    between atoms: _262  and  _265
REMARK  102  A    between atoms: _265  and  _266
REMARK  103  A    between atoms: _271  and  _272
REMARK  104  A    between atoms: _274  and  _276
REMARK  105  A    between atoms: _276  and  _277
REMARK  106  A    between atoms: _276  and  _279
REMARK  107  A    between atoms: _279  and  _280
REMARK  108  A    between atoms: _280  and  _281
REMARK  109  A    between atoms: _281  and  _282
REMARK  110  A    between atoms: _291  and  _293
REMARK  111  A    between atoms: _293  and  _294
REMARK  112  A    between atoms: _293  and  _296
REMARK  113  A    between atoms: _296  and  _297
REMARK  114  A    between atoms: _297  and  _298
REMARK  115  A    between atoms: _298  and  _299
REMARK  116  A    between atoms: _299  and  _300
REMARK  117  A    between atoms: _304  and  _306
REMARK  118  A    between atoms: _306  and  _307
REMARK  119  A    between atoms: _306  and  _309
REMARK  120  A    between atoms: _309  and  _310
REMARK  121  A    between atoms: _310  and  _311
REMARK  122  A    between atoms: _314  and  _316
REMARK  123  A    between atoms: _316  and  _317
REMARK  124  A    between atoms: _316  and  _319
REMARK  125  A    between atoms: _322  and  _324
REMARK  126  A    between atoms: _324  and  _325
REMARK  127  A    between atoms: _324  and  _327
REMARK  128  A    between atoms: _327  and  _328
REMARK  129  A    between atoms: _338  and  _340
REMARK  130  A    between atoms: _340  and  _341
REMARK  131  A    between atoms: _340  and  _343
REMARK  132  A    between atoms: _343  and  _344
REMARK  133  A    between atoms: _344  and  _345
REMARK                            x       y       z     vdW  Elec       q    Type
REMARK                         _______ _______ _______ _____ _____    ______ ____
ROOT
ATOM      1  O   HOH     1       8.192  -2.488  26.376  0.00  0.00    +0.000 OA
ENDROOT
TORSDOF 0
REMARK  Name = ../refined-set-2016/3ary/3ary_pocket.pdb
REMARK  133 active torsions:
REMARK  status: ('A' for Active; 'I' for Inactive)
REMARK    1  A    between atoms: _1  and  _3
REMARK    2  A    between atoms: _3  and  _4
REMARK    3  A    between atoms: _3  and  _6
REMARK    4  A    between atoms: _6  and  _7
REMARK    5  A    between atoms: _17  and  _19
REMARK    6  A    between atoms: _19  and  _20
REMARK    7  A    between atoms: _19  and  _22
REMARK    8  A    between atoms: _22  and  _23
REMARK    9  A    between atoms: _29  and  _31
REMARK   10  A    between atoms: _31  and  _32
REMARK   11  A    between atoms: _31  and  _34
REMARK   12  A    between atoms: _34  and  _35
REMARK   13  A    between atoms: _37  and  _39
REMARK   14  A    between atoms: _39  and  _40
REMARK   15  A    between atoms: _39  and  _42
REMARK   16  A    between atoms: _45  and  _47
REMARK   17  A    between atoms: _47  and  _48
REMARK   18  A    between atoms: _47  and  _50
REMARK   19  A    between atoms: _50  and  _51
REMARK   20  A    between atoms: _53  and  _55
REMARK   21  A    between atoms: _55  and  _56
REMARK   22  A    between atoms: _55  and  _58
REMARK   23  A    between atoms: _61  and  _63
REMARK   24  A    between atoms: _63  and  _64
REMARK   25  A    between atoms: _66  and  _68
REMARK   26  A    between atoms: _68  and  _69
REMARK   27  A    between atoms: _68  and  _71
REMARK   28  A    between atoms: _71  and  _72
REMARK   29  A    between atoms: _82  and  _84
REMARK   30  A    between atoms: _84  and  _85
REMARK   31  A    between atoms: _84  and  _87
REMARK   32  A    between atoms: _87  and  _88
REMARK   33  A    between atoms: _91  and  _93
REMARK   34  A    between atoms: _93  and  _94
REMARK   35  A    between atoms: _93  and  _96
REMARK   36  A    between atoms: _96  and  _97
REMARK   37  A    between atoms: _100  and  _102
REMARK   38  A    between atoms: _102  and  _103
REMARK   39  A    between atoms: _102  and  _105
REMARK   40  A    between atoms: _105  and  _106
REMARK   41  A    between atoms: _106  and  _107
REMARK   42  A    between atoms: _110  and  _112
REMARK   43  A    between atoms: _112  and  _113
REMARK   44  A    between atoms: _112  and  _115
REMARK   45  A    between atoms: _115  and  _116
REMARK   46  A    between atoms: _122  and  _124
REMARK   47  A    between atoms: _124  and  _125
REMARK   48  A    between atoms: _127  and  _129
REMARK   49  A    between atoms: _129  and  _130
REMARK   50  A    between atoms: _132  and  _134
REMARK   51  A    between atoms: _134  and  _135
REMARK   52  A    between atoms: _138  and  _140
REMARK   53  A    between atoms: _140  and  _141
REMARK   54  A    between atoms: _140  and  _143
REMARK   55  A    between atoms: _143  and  _144
REMARK   56  A    between atoms: _144  and  _145
REMARK   57  A    between atoms: _145  and  _146
REMARK   58  A    between atoms: _146  and  _147
REMARK   59  A    between atoms: _151  and  _153
REMARK   60  A    between atoms: _153  and  _154
REMARK   61  A    between atoms: _153  and  _156
REMARK   62  A    between atoms: _156  and  _157
REMARK   63  A    between atoms: _157  and  _158
REMARK   64  A    between atoms: _160  and  _162
REMARK   65  A    between atoms: _162  and  _163
REMARK   66  A    between atoms: _162  and  _165
REMARK   67  A    between atoms: _165  and  _166
REMARK   68  A    between atoms: _171  and  _172
REMARK   69  A    between atoms: _174  and  _176
REMARK   70  A    between atoms: _176  and  _177
REMARK   71  A    between atoms: _176  and  _179
REMARK   72  A    between atoms: _179  and  _180
REMARK   73  A    between atoms: _183  and  _185
REMARK   74  A    between atoms: _185  and  _186
REMARK   75  A    between atoms: _185  and  _188
REMARK   76  A    between atoms: _188  and  _189
REMARK   77  A    between atoms: _195  and  _197
REMARK   78  A    between atoms: _197  and  _198
REMARK   79  A    between atoms: _197  and  _200
REMARK   80  A    between atoms: _200  and  _201
REMARK   81  A    between atoms: _206  and  _207
REMARK   82  A    between atoms: _209  and  _211
REMARK   83  A    between atoms: _211  and  _212
REMARK   84  A    between atoms: _214  and  _216
REMARK   85  A    between atoms: _216  and  _217
REMARK   86  A    between atoms: _219  and  _221
REMARK   87  A    between atoms: _221  and  _222
REMARK   88  A    between atoms: _221  and  _224
REMARK   89  A    between atoms: _224  and  _225
REMARK   90  A    between atoms: _235  and  _237
REMARK   91  A    between atoms: _237  and  _238
REMARK   92  A    between atoms: _237  and  _240
REMARK   93  A    between atoms: _240  and  _241
REMARK   94  A    between atoms: _246  and  _248
REMARK   95  A    between atoms: _248  and  _249
REMARK   96  A    between atoms: _248  and  _251
REMARK   97  A    between atoms: _251  and  _252
REMARK   98  A    between atoms: _257  and  _258
REMARK   99  A    between atoms: _260  and  _262
REMARK  100  A    between atoms: _262  and  _263
REMARK  101  A    between atoms: _262  and  _265
REMARK  102  A    between atoms: _265  and  _266
REMARK  103  A    between atoms: _271  and  _272
REMARK  104  A    between atoms: _274  and  _276
REMARK  105  A    between atoms: _276  and  _277
REMARK  106  A    between atoms: _276  and  _279
REMARK  107  A    between atoms: _279  and  _280
REMARK  108  A    between atoms: _280  and  _281
REMARK  109  A    between atoms: _281  and  _282
REMARK  110  A    between atoms: _291  and  _293
REMARK  111  A    between atoms: _293  and  _294
REMARK  112  A    between atoms: _293  and  _296
REMARK  113  A    between atoms: _296  and  _297
REMARK  114  A    between atoms: _297  and  _298
REMARK  115  A    between atoms: _298  and  _299
REMARK  116  A    between atoms: _299  and  _300
REMARK  117  A    between atoms: _304  and  _306
REMARK  118  A    between atoms: _306  and  _307
REMARK  119  A    between atoms: _306  and  _309
REMARK  120  A    between atoms: _309  and  _310
REMARK  121  A    between atoms: _310  and  _311
REMARK  122  A    between atoms: _314  and  _316
REMARK  123  A    between atoms: _316  and  _317
REMARK  124  A    between atoms: _316  and  _319
REMARK  125  A    between atoms: _322  and  _324
REMARK  126  A    between atoms: _324  and  _325
REMARK  127  A    between atoms: _324  and  _327
REMARK  128  A    between atoms: _327  and  _328
REMARK  129  A    between atoms: _338  and  _340
REMARK  130  A    between atoms: _340  and  _341
REMARK  131  A    between atoms: _340  and  _343
REMARK  132  A    between atoms: _343  and  _344
REMARK  133  A    between atoms: _344  and  _345
REMARK                            x       y       z     vdW  Elec       q    Type
REMARK                         _______ _______ _______ _____ _____    ______ ____
ROOT
ATOM      1  O   HOH     1      19.967  -2.720  22.669  0.00  0.00    +0.000 OA
ENDROOT
TORSDOF 0
REMARK  Name = ../refined-set-2016/3ary/3ary_pocket.pdb
REMARK  133 active torsions:
REMARK  status: ('A' for Active; 'I' for Inactive)
REMARK    1  A    between atoms: _1  and  _3
REMARK    2  A    between atoms: _3  and  _4
REMARK    3  A    between atoms: _3  and  _6
REMARK    4  A    between atoms: _6  and  _7
REMARK    5  A    between atoms: _17  and  _19
REMARK    6  A    between atoms: _19  and  _20
REMARK    7  A    between atoms: _19  and  _22
REMARK    8  A    between atoms: _22  and  _23
REMARK    9  A    between atoms: _29  and  _31
REMARK   10  A    between atoms: _31  and  _32
REMARK   11  A    between atoms: _31  and  _34
REMARK   12  A    between atoms: _34  and  _35
REMARK   13  A    between atoms: _37  and  _39
REMARK   14  A    between atoms: _39  and  _40
REMARK   15  A    between atoms: _39  and  _42
REMARK   16  A    between atoms: _45  and  _47
REMARK   17  A    between atoms: _47  and  _48
REMARK   18  A    between atoms: _47  and  _50
REMARK   19  A    between atoms: _50  and  _51
REMARK   20  A    between atoms: _53  and  _55
REMARK   21  A    between atoms: _55  and  _56
REMARK   22  A    between atoms: _55  and  _58
REMARK   23  A    between atoms: _61  and  _63
REMARK   24  A    between atoms: _63  and  _64
REMARK   25  A    between atoms: _66  and  _68
REMARK   26  A    between atoms: _68  and  _69
REMARK   27  A    between atoms: _68  and  _71
REMARK   28  A    between atoms: _71  and  _72
REMARK   29  A    between atoms: _82  and  _84
REMARK   30  A    between atoms: _84  and  _85
REMARK   31  A    between atoms: _84  and  _87
REMARK   32  A    between atoms: _87  and  _88
REMARK   33  A    between atoms: _91  and  _93
REMARK   34  A    between atoms: _93  and  _94
REMARK   35  A    between atoms: _93  and  _96
REMARK   36  A    between atoms: _96  and  _97
REMARK   37  A    between atoms: _100  and  _102
REMARK   38  A    between atoms: _102  and  _103
REMARK   39  A    between atoms: _102  and  _105
REMARK   40  A    between atoms: _105  and  _106
REMARK   41  A    between atoms: _106  and  _107
REMARK   42  A    between atoms: _110  and  _112
REMARK   43  A    between atoms: _112  and  _113
REMARK   44  A    between atoms: _112  and  _115
REMARK   45  A    between atoms: _115  and  _116
REMARK   46  A    between atoms: _122  and  _124
REMARK   47  A    between atoms: _124  and  _125
REMARK   48  A    between atoms: _127  and  _129
REMARK   49  A    between atoms: _129  and  _130
REMARK   50  A    between atoms: _132  and  _134
REMARK   51  A    between atoms: _134  and  _135
REMARK   52  A    between atoms: _138  and  _140
REMARK   53  A    between atoms: _140  and  _141
REMARK   54  A    between atoms: _140  and  _143
REMARK   55  A    between atoms: _143  and  _144
REMARK   56  A    between atoms: _144  and  _145
REMARK   57  A    between atoms: _145  and  _146
REMARK   58  A    between atoms: _146  and  _147
REMARK   59  A    between atoms: _151  and  _153
REMARK   60  A    between atoms: _153  and  _154
REMARK   61  A    between atoms: _153  and  _156
REMARK   62  A    between atoms: _156  and  _157
REMARK   63  A    between atoms: _157  and  _158
REMARK   64  A    between atoms: _160  and  _162
REMARK   65  A    between atoms: _162  and  _163
REMARK   66  A    between atoms: _162  and  _165
REMARK   67  A    between atoms: _165  and  _166
REMARK   68  A    between atoms: _171  and  _172
REMARK   69  A    between atoms: _174  and  _176
REMARK   70  A    between atoms: _176  and  _177
REMARK   71  A    between atoms: _176  and  _179
REMARK   72  A    between atoms: _179  and  _180
REMARK   73  A    between atoms: _183  and  _185
REMARK   74  A    between atoms: _185  and  _186
REMARK   75  A    between atoms: _185  and  _188
REMARK   76  A    between atoms: _188  and  _189
REMARK   77  A    between atoms: _195  and  _197
REMARK   78  A    between atoms: _197  and  _198
REMARK   79  A    between atoms: _197  and  _200
REMARK   80  A    between atoms: _200  and  _201
REMARK   81  A    between atoms: _206  and  _207
REMARK   82  A    between atoms: _209  and  _211
REMARK   83  A    between atoms: _211  and  _212
REMARK   84  A    between atoms: _214  and  _216
REMARK   85  A    between atoms: _216  and  _217
REMARK   86  A    between atoms: _219  and  _221
REMARK   87  A    between atoms: _221  and  _222
REMARK   88  A    between atoms: _221  and  _224
REMARK   89  A    between atoms: _224  and  _225
REMARK   90  A    between atoms: _235  and  _237
REMARK   91  A    between atoms: _237  and  _238
REMARK   92  A    between atoms: _237  and  _240
REMARK   93  A    between atoms: _240  and  _241
REMARK   94  A    between atoms: _246  and  _248
REMARK   95  A    between atoms: _248  and  _249
REMARK   96  A    between atoms: _248  and  _251
REMARK   97  A    between atoms: _251  and  _252
REMARK   98  A    between atoms: _257  and  _258
REMARK   99  A    between atoms: _260  and  _262
REMARK  100  A    between atoms: _262  and  _263
REMARK  101  A    between atoms: _262  and  _265
REMARK  102  A    between atoms: _265  and  _266
REMARK  103  A    between atoms: _271  and  _272
REMARK  104  A    between atoms: _274  and  _276
REMARK  105  A    between atoms: _276  and  _277
REMARK  106  A    between atoms: _276  and  _279
REMARK  107  A    between atoms: _279  and  _280
REMARK  108  A    between atoms: _280  and  _281
REMARK  109  A    between atoms: _281  and  _282
REMARK  110  A    between atoms: _291  and  _293
REMARK  111  A    between atoms: _293  and  _294
REMARK  112  A    between atoms: _293  and  _296
REMARK  113  A    between atoms: _296  and  _297
REMARK  114  A    between atoms: _297  and  _298
REMARK  115  A    between atoms: _298  and  _299
REMARK  116  A    between atoms: _299  and  _300
REMARK  117  A    between atoms: _304  and  _306
REMARK  118  A    between atoms: _306  and  _307
REMARK  119  A    between atoms: _306  and  _309
REMARK  120  A    between atoms: _309  and  _310
REMARK  121  A    between atoms: _310  and  _311
REMARK  122  A    between atoms: _314  and  _316
REMARK  123  A    between atoms: _316  and  _317
REMARK  124  A    between atoms: _316  and  _319
REMARK  125  A    between atoms: _322  and  _324
REMARK  126  A    between atoms: _324  and  _325
REMARK  127  A    between atoms: _324  and  _327
REMARK  128  A    between atoms: _327  and  _328
REMARK  129  A    between atoms: _338  and  _340
REMARK  130  A    between atoms: _340  and  _341
REMARK  131  A    between atoms: _340  and  _343
REMARK  132  A    between atoms: _343  and  _344
REMARK  133  A    between atoms: _344  and  _345
REMARK                            x       y       z     vdW  Elec       q    Type
REMARK                         _______ _______ _______ _____ _____    ______ ____
ROOT
ATOM      1  O   HOH     1      17.497 -14.496  16.924  0.00  0.00    +0.000 OA
ENDROOT
TORSDOF 0
REMARK  Name = ../refined-set-2016/3ary/3ary_pocket.pdb
REMARK  133 active torsions:
REMARK  status: ('A' for Active; 'I' for Inactive)
REMARK    1  A    between atoms: _1  and  _3
REMARK    2  A    between atoms: _3  and  _4
REMARK    3  A    between atoms: _3  and  _6
REMARK    4  A    between atoms: _6  and  _7
REMARK    5  A    between atoms: _17  and  _19
REMARK    6  A    between atoms: _19  and  _20
REMARK    7  A    between atoms: _19  and  _22
REMARK    8  A    between atoms: _22  and  _23
REMARK    9  A    between atoms: _29  and  _31
REMARK   10  A    between atoms: _31  and  _32
REMARK   11  A    between atoms: _31  and  _34
REMARK   12  A    between atoms: _34  and  _35
REMARK   13  A    between atoms: _37  and  _39
REMARK   14  A    between atoms: _39  and  _40
REMARK   15  A    between atoms: _39  and  _42
REMARK   16  A    between atoms: _45  and  _47
REMARK   17  A    between atoms: _47  and  _48
REMARK   18  A    between atoms: _47  and  _50
REMARK   19  A    between atoms: _50  and  _51
REMARK   20  A    between atoms: _53  and  _55
REMARK   21  A    between atoms: _55  and  _56
REMARK   22  A    between atoms: _55  and  _58
REMARK   23  A    between atoms: _61  and  _63
REMARK   24  A    between atoms: _63  and  _64
REMARK   25  A    between atoms: _66  and  _68
REMARK   26  A    between atoms: _68  and  _69
REMARK   27  A    between atoms: _68  and  _71
REMARK   28  A    between atoms: _71  and  _72
REMARK   29  A    between atoms: _82  and  _84
REMARK   30  A    between atoms: _84  and  _85
REMARK   31  A    between atoms: _84  and  _87
REMARK   32  A    between atoms: _87  and  _88
REMARK   33  A    between atoms: _91  and  _93
REMARK   34  A    between atoms: _93  and  _94
REMARK   35  A    between atoms: _93  and  _96
REMARK   36  A    between atoms: _96  and  _97
REMARK   37  A    between atoms: _100  and  _102
REMARK   38  A    between atoms: _102  and  _103
REMARK   39  A    between atoms: _102  and  _105
REMARK   40  A    between atoms: _105  and  _106
REMARK   41  A    between atoms: _106  and  _107
REMARK   42  A    between atoms: _110  and  _112
REMARK   43  A    between atoms: _112  and  _113
REMARK   44  A    between atoms: _112  and  _115
REMARK   45  A    between atoms: _115  and  _116
REMARK   46  A    between atoms: _122  and  _124
REMARK   47  A    between atoms: _124  and  _125
REMARK   48  A    between atoms: _127  and  _129
REMARK   49  A    between atoms: _129  and  _130
REMARK   50  A    between atoms: _132  and  _134
REMARK   51  A    between atoms: _134  and  _135
REMARK   52  A    between atoms: _138  and  _140
REMARK   53  A    between atoms: _140  and  _141
REMARK   54  A    between atoms: _140  and  _143
REMARK   55  A    between atoms: _143  and  _144
REMARK   56  A    between atoms: _144  and  _145
REMARK   57  A    between atoms: _145  and  _146
REMARK   58  A    between atoms: _146  and  _147
REMARK   59  A    between atoms: _151  and  _153
REMARK   60  A    between atoms: _153  and  _154
REMARK   61  A    between atoms: _153  and  _156
REMARK   62  A    between atoms: _156  and  _157
REMARK   63  A    between atoms: _157  and  _158
REMARK   64  A    between atoms: _160  and  _162
REMARK   65  A    between atoms: _162  and  _163
REMARK   66  A    between atoms: _162  and  _165
REMARK   67  A    between atoms: _165  and  _166
REMARK   68  A    between atoms: _171  and  _172
REMARK   69  A    between atoms: _174  and  _176
REMARK   70  A    between atoms: _176  and  _177
REMARK   71  A    between atoms: _176  and  _179
REMARK   72  A    between atoms: _179  and  _180
REMARK   73  A    between atoms: _183  and  _185
REMARK   74  A    between atoms: _185  and  _186
REMARK   75  A    between atoms: _185  and  _188
REMARK   76  A    between atoms: _188  and  _189
REMARK   77  A    between atoms: _195  and  _197
REMARK   78  A    between atoms: _197  and  _198
REMARK   79  A    between atoms: _197  and  _200
REMARK   80  A    between atoms: _200  and  _201
REMARK   81  A    between atoms: _206  and  _207
REMARK   82  A    between atoms: _209  and  _211
REMARK   83  A    between atoms: _211  and  _212
REMARK   84  A    between atoms: _214  and  _216
REMARK   85  A    between atoms: _216  and  _217
REMARK   86  A    between atoms: _219  and  _221
REMARK   87  A    between atoms: _221  and  _222
REMARK   88  A    between atoms: _221  and  _224
REMARK   89  A    between atoms: _224  and  _225
REMARK   90  A    between atoms: _235  and  _237
REMARK   91  A    between atoms: _237  and  _238
REMARK   92  A    between atoms: _237  and  _240
REMARK   93  A    between atoms: _240  and  _241
REMARK   94  A    between atoms: _246  and  _248
REMARK   95  A    between atoms: _248  and  _249
REMARK   96  A    between atoms: _248  and  _251
REMARK   97  A    between atoms: _251  and  _252
REMARK   98  A    between atoms: _257  and  _258
REMARK   99  A    between atoms: _260  and  _262
REMARK  100  A    between atoms: _262  and  _263
REMARK  101  A    between atoms: _262  and  _265
REMARK  102  A    between atoms: _265  and  _266
REMARK  103  A    between atoms: _271  and  _272
REMARK  104  A    between atoms: _274  and  _276
REMARK  105  A    between atoms: _276  and  _277
REMARK  106  A    between atoms: _276  and  _279
REMARK  107  A    between atoms: _279  and  _280
REMARK  108  A    between atoms: _280  and  _281
REMARK  109  A    between atoms: _281  and  _282
REMARK  110  A    between atoms: _291  and  _293
REMARK  111  A    between atoms: _293  and  _294
REMARK  112  A    between atoms: _293  and  _296
REMARK  113  A    between atoms: _296  and  _297
REMARK  114  A    between atoms: _297  and  _298
REMARK  115  A    between atoms: _298  and  _299
REMARK  116  A    between atoms: _299  and  _300
REMARK  117  A    between atoms: _304  and  _306
REMARK  118  A    between atoms: _306  and  _307
REMARK  119  A    between atoms: _306  and  _309
REMARK  120  A    between atoms: _309  and  _310
REMARK  121  A    between atoms: _310  and  _311
REMARK  122  A    between atoms: _314  and  _316
REMARK  123  A    between atoms: _316  and  _317
REMARK  124  A    between atoms: _316  and  _319
REMARK  125  A    between atoms: _322  and  _324
REMARK  126  A    between atoms: _324  and  _325
REMARK  127  A    between atoms: _324  and  _327
REMARK  128  A    between atoms: _327  and  _328
REMARK  129  A    between atoms: _338  and  _340
REMARK  130  A    between atoms: _340  and  _341
REMARK  131  A    between atoms: _340  and  _343
REMARK  132  A    between atoms: _343  and  _344
REMARK  133  A    between atoms: _344  and  _345
REMARK                            x       y       z     vdW  Elec       q    Type
REMARK                         _______ _______ _______ _____ _____    ______ ____
ROOT
ATOM      1  O   HOH     1       9.707  -1.195  21.688  0.00  0.00    +0.000 OA
ENDROOT
TORSDOF 0
REMARK  Name = ../refined-set-2016/3ary/3ary_pocket.pdb
REMARK  133 active torsions:
REMARK  status: ('A' for Active; 'I' for Inactive)
REMARK    1  A    between atoms: _1  and  _3
REMARK    2  A    between atoms: _3  and  _4
REMARK    3  A    between atoms: _3  and  _6
REMARK    4  A    between atoms: _6  and  _7
REMARK    5  A    between atoms: _17  and  _19
REMARK    6  A    between atoms: _19  and  _20
REMARK    7  A    between atoms: _19  and  _22
REMARK    8  A    between atoms: _22  and  _23
REMARK    9  A    between atoms: _29  and  _31
REMARK   10  A    between atoms: _31  and  _32
REMARK   11  A    between atoms: _31  and  _34
REMARK   12  A    between atoms: _34  and  _35
REMARK   13  A    between atoms: _37  and  _39
REMARK   14  A    between atoms: _39  and  _40
REMARK   15  A    between atoms: _39  and  _42
REMARK   16  A    between atoms: _45  and  _47
REMARK   17  A    between atoms: _47  and  _48
REMARK   18  A    between atoms: _47  and  _50
REMARK   19  A    between atoms: _50  and  _51
REMARK   20  A    between atoms: _53  and  _55
REMARK   21  A    between atoms: _55  and  _56
REMARK   22  A    between atoms: _55  and  _58
REMARK   23  A    between atoms: _61  and  _63
REMARK   24  A    between atoms: _63  and  _64
REMARK   25  A    between atoms: _66  and  _68
REMARK   26  A    between atoms: _68  and  _69
REMARK   27  A    between atoms: _68  and  _71
REMARK   28  A    between atoms: _71  and  _72
REMARK   29  A    between atoms: _82  and  _84
REMARK   30  A    between atoms: _84  and  _85
REMARK   31  A    between atoms: _84  and  _87
REMARK   32  A    between atoms: _87  and  _88
REMARK   33  A    between atoms: _91  and  _93
REMARK   34  A    between atoms: _93  and  _94
REMARK   35  A    between atoms: _93  and  _96
REMARK   36  A    between atoms: _96  and  _97
REMARK   37  A    between atoms: _100  and  _102
REMARK   38  A    between atoms: _102  and  _103
REMARK   39  A    between atoms: _102  and  _105
REMARK   40  A    between atoms: _105  and  _106
REMARK   41  A    between atoms: _106  and  _107
REMARK   42  A    between atoms: _110  and  _112
REMARK   43  A    between atoms: _112  and  _113
REMARK   44  A    between atoms: _112  and  _115
REMARK   45  A    between atoms: _115  and  _116
REMARK   46  A    between atoms: _122  and  _124
REMARK   47  A    between atoms: _124  and  _125
REMARK   48  A    between atoms: _127  and  _129
REMARK   49  A    between atoms: _129  and  _130
REMARK   50  A    between atoms: _132  and  _134
REMARK   51  A    between atoms: _134  and  _135
REMARK   52  A    between atoms: _138  and  _140
REMARK   53  A    between atoms: _140  and  _141
REMARK   54  A    between atoms: _140  and  _143
REMARK   55  A    between atoms: _143  and  _144
REMARK   56  A    between atoms: _144  and  _145
REMARK   57  A    between atoms: _145  and  _146
REMARK   58  A    between atoms: _146  and  _147
REMARK   59  A    between atoms: _151  and  _153
REMARK   60  A    between atoms: _153  and  _154
REMARK   61  A    between atoms: _153  and  _156
REMARK   62  A    between atoms: _156  and  _157
REMARK   63  A    between atoms: _157  and  _158
REMARK   64  A    between atoms: _160  and  _162
REMARK   65  A    between atoms: _162  and  _163
REMARK   66  A    between atoms: _162  and  _165
REMARK   67  A    between atoms: _165  and  _166
REMARK   68  A    between atoms: _171  and  _172
REMARK   69  A    between atoms: _174  and  _176
REMARK   70  A    between atoms: _176  and  _177
REMARK   71  A    between atoms: _176  and  _179
REMARK   72  A    between atoms: _179  and  _180
REMARK   73  A    between atoms: _183  and  _185
REMARK   74  A    between atoms: _185  and  _186
REMARK   75  A    between atoms: _185  and  _188
REMARK   76  A    between atoms: _188  and  _189
REMARK   77  A    between atoms: _195  and  _197
REMARK   78  A    between atoms: _197  and  _198
REMARK   79  A    between atoms: _197  and  _200
REMARK   80  A    between atoms: _200  and  _201
REMARK   81  A    between atoms: _206  and  _207
REMARK   82  A    between atoms: _209  and  _211
REMARK   83  A    between atoms: _211  and  _212
REMARK   84  A    between atoms: _214  and  _216
REMARK   85  A    between atoms: _216  and  _217
REMARK   86  A    between atoms: _219  and  _221
REMARK   87  A    between atoms: _221  and  _222
REMARK   88  A    between atoms: _221  and  _224
REMARK   89  A    between atoms: _224  and  _225
REMARK   90  A    between atoms: _235  and  _237
REMARK   91  A    between atoms: _237  and  _238
REMARK   92  A    between atoms: _237  and  _240
REMARK   93  A    between atoms: _240  and  _241
REMARK   94  A    between atoms: _246  and  _248
REMARK   95  A    between atoms: _248  and  _249
REMARK   96  A    between atoms: _248  and  _251
REMARK   97  A    between atoms: _251  and  _252
REMARK   98  A    between atoms: _257  and  _258
REMARK   99  A    between atoms: _260  and  _262
REMARK  100  A    between atoms: _262  and  _263
REMARK  101  A    between atoms: _262  and  _265
REMARK  102  A    between atoms: _265  and  _266
REMARK  103  A    between atoms: _271  and  _272
REMARK  104  A    between atoms: _274  and  _276
REMARK  105  A    between atoms: _276  and  _277
REMARK  106  A    between atoms: _276  and  _279
REMARK  107  A    between atoms: _279  and  _280
REMARK  108  A    between atoms: _280  and  _281
REMARK  109  A    between atoms: _281  and  _282
REMARK  110  A    between atoms: _291  and  _293
REMARK  111  A    between atoms: _293  and  _294
REMARK  112  A    between atoms: _293  and  _296
REMARK  113  A    between atoms: _296  and  _297
REMARK  114  A    between atoms: _297  and  _298
REMARK  115  A    between atoms: _298  and  _299
REMARK  116  A    between atoms: _299  and  _300
REMARK  117  A    between atoms: _304  and  _306
REMARK  118  A    between atoms: _306  and  _307
REMARK  119  A    between atoms: _306  and  _309
REMARK  120  A    between atoms: _309  and  _310
REMARK  121  A    between atoms: _310  and  _311
REMARK  122  A    between atoms: _314  and  _316
REMARK  123  A    between atoms: _316  and  _317
REMARK  124  A    between atoms: _316  and  _319
REMARK  125  A    between atoms: _322  and  _324
REMARK  126  A    between atoms: _324  and  _325
REMARK  127  A    between atoms: _324  and  _327
REMARK  128  A    between atoms: _327  and  _328
REMARK  129  A    between atoms: _338  and  _340
REMARK  130  A    between atoms: _340  and  _341
REMARK  131  A    between atoms: _340  and  _343
REMARK  132  A    between atoms: _343  and  _344
REMARK  133  A    between atoms: _344  and  _345
REMARK                            x       y       z     vdW  Elec       q    Type
REMARK                         _______ _______ _______ _____ _____    ______ ____
ROOT
ATOM      1  O   HOH     1      13.495 -11.045  19.166  0.00  0.00    +0.000 OA
ENDROOT
TORSDOF 0
REMARK  Name = ../refined-set-2016/3ary/3ary_pocket.pdb
REMARK  133 active torsions:
REMARK  status: ('A' for Active; 'I' for Inactive)
REMARK    1  A    between atoms: _1  and  _3
REMARK    2  A    between atoms: _3  and  _4
REMARK    3  A    between atoms: _3  and  _6
REMARK    4  A    between atoms: _6  and  _7
REMARK    5  A    between atoms: _17  and  _19
REMARK    6  A    between atoms: _19  and  _20
REMARK    7  A    between atoms: _19  and  _22
REMARK    8  A    between atoms: _22  and  _23
REMARK    9  A    between atoms: _29  and  _31
REMARK   10  A    between atoms: _31  and  _32
REMARK   11  A    between atoms: _31  and  _34
REMARK   12  A    between atoms: _34  and  _35
REMARK   13  A    between atoms: _37  and  _39
REMARK   14  A    between atoms: _39  and  _40
REMARK   15  A    between atoms: _39  and  _42
REMARK   16  A    between atoms: _45  and  _47
REMARK   17  A    between atoms: _47  and  _48
REMARK   18  A    between atoms: _47  and  _50
REMARK   19  A    between atoms: _50  and  _51
REMARK   20  A    between atoms: _53  and  _55
REMARK   21  A    between atoms: _55  and  _56
REMARK   22  A    between atoms: _55  and  _58
REMARK   23  A    between atoms: _61  and  _63
REMARK   24  A    between atoms: _63  and  _64
REMARK   25  A    between atoms: _66  and  _68
REMARK   26  A    between atoms: _68  and  _69
REMARK   27  A    between atoms: _68  and  _71
REMARK   28  A    between atoms: _71  and  _72
REMARK   29  A    between atoms: _82  and  _84
REMARK   30  A    between atoms: _84  and  _85
REMARK   31  A    between atoms: _84  and  _87
REMARK   32  A    between atoms: _87  and  _88
REMARK   33  A    between atoms: _91  and  _93
REMARK   34  A    between atoms: _93  and  _94
REMARK   35  A    between atoms: _93  and  _96
REMARK   36  A    between atoms: _96  and  _97
REMARK   37  A    between atoms: _100  and  _102
REMARK   38  A    between atoms: _102  and  _103
REMARK   39  A    between atoms: _102  and  _105
REMARK   40  A    between atoms: _105  and  _106
REMARK   41  A    between atoms: _106  and  _107
REMARK   42  A    between atoms: _110  and  _112
REMARK   43  A    between atoms: _112  and  _113
REMARK   44  A    between atoms: _112  and  _115
REMARK   45  A    between atoms: _115  and  _116
REMARK   46  A    between atoms: _122  and  _124
REMARK   47  A    between atoms: _124  and  _125
REMARK   48  A    between atoms: _127  and  _129
REMARK   49  A    between atoms: _129  and  _130
REMARK   50  A    between atoms: _132  and  _134
REMARK   51  A    between atoms: _134  and  _135
REMARK   52  A    between atoms: _138  and  _140
REMARK   53  A    between atoms: _140  and  _141
REMARK   54  A    between atoms: _140  and  _143
REMARK   55  A    between atoms: _143  and  _144
REMARK   56  A    between atoms: _144  and  _145
REMARK   57  A    between atoms: _145  and  _146
REMARK   58  A    between atoms: _146  and  _147
REMARK   59  A    between atoms: _151  and  _153
REMARK   60  A    between atoms: _153  and  _154
REMARK   61  A    between atoms: _153  and  _156
REMARK   62  A    between atoms: _156  and  _157
REMARK   63  A    between atoms: _157  and  _158
REMARK   64  A    between atoms: _160  and  _162
REMARK   65  A    between atoms: _162  and  _163
REMARK   66  A    between atoms: _162  and  _165
REMARK   67  A    between atoms: _165  and  _166
REMARK   68  A    between atoms: _171  and  _172
REMARK   69  A    between atoms: _174  and  _176
REMARK   70  A    between atoms: _176  and  _177
REMARK   71  A    between atoms: _176  and  _179
REMARK   72  A    between atoms: _179  and  _180
REMARK   73  A    between atoms: _183  and  _185
REMARK   74  A    between atoms: _185  and  _186
REMARK   75  A    between atoms: _185  and  _188
REMARK   76  A    between atoms: _188  and  _189
REMARK   77  A    between atoms: _195  and  _197
REMARK   78  A    between atoms: _197  and  _198
REMARK   79  A    between atoms: _197  and  _200
REMARK   80  A    between atoms: _200  and  _201
REMARK   81  A    between atoms: _206  and  _207
REMARK   82  A    between atoms: _209  and  _211
REMARK   83  A    between atoms: _211  and  _212
REMARK   84  A    between atoms: _214  and  _216
REMARK   85  A    between atoms: _216  and  _217
REMARK   86  A    between atoms: _219  and  _221
REMARK   87  A    between atoms: _221  and  _222
REMARK   88  A    between atoms: _221  and  _224
REMARK   89  A    between atoms: _224  and  _225
REMARK   90  A    between atoms: _235  and  _237
REMARK   91  A    between atoms: _237  and  _238
REMARK   92  A    between atoms: _237  and  _240
REMARK   93  A    between atoms: _240  and  _241
REMARK   94  A    between atoms: _246  and  _248
REMARK   95  A    between atoms: _248  and  _249
REMARK   96  A    between atoms: _248  and  _251
REMARK   97  A    between atoms: _251  and  _252
REMARK   98  A    between atoms: _257  and  _258
REMARK   99  A    between atoms: _260  and  _262
REMARK  100  A    between atoms: _262  and  _263
REMARK  101  A    between atoms: _262  and  _265
REMARK  102  A    between atoms: _265  and  _266
REMARK  103  A    between atoms: _271  and  _272
REMARK  104  A    between atoms: _274  and  _276
REMARK  105  A    between atoms: _276  and  _277
REMARK  106  A    between atoms: _276  and  _279
REMARK  107  A    between atoms: _279  and  _280
REMARK  108  A    between atoms: _280  and  _281
REMARK  109  A    between atoms: _281  and  _282
REMARK  110  A    between atoms: _291  and  _293
REMARK  111  A    between atoms: _293  and  _294
REMARK  112  A    between atoms: _293  and  _296
REMARK  113  A    between atoms: _296  and  _297
REMARK  114  A    between atoms: _297  and  _298
REMARK  115  A    between atoms: _298  and  _299
REMARK  116  A    between atoms: _299  and  _300
REMARK  117  A    between atoms: _304  and  _306
REMARK  118  A    between atoms: _306  and  _307
REMARK  119  A    between atoms: _306  and  _309
REMARK  120  A    between atoms: _309  and  _310
REMARK  121  A    between atoms: _310  and  _311
REMARK  122  A    between atoms: _314  and  _316
REMARK  123  A    between atoms: _316  and  _317
REMARK  124  A    between atoms: _316  and  _319
REMARK  125  A    between atoms: _322  and  _324
REMARK  126  A    between atoms: _324  and  _325
REMARK  127  A    between atoms: _324  and  _327
REMARK  128  A    between atoms: _327  and  _328
REMARK  129  A    between atoms: _338  and  _340
REMARK  130  A    between atoms: _340  and  _341
REMARK  131  A    between atoms: _340  and  _343
REMARK  132  A    between atoms: _343  and  _344
REMARK  133  A    between atoms: _344  and  _345
REMARK                            x       y       z     vdW  Elec       q    Type
REMARK                         _______ _______ _______ _____ _____    ______ ____
ROOT
ATOM      1  O   HOH     1      18.223 -14.470  19.339  0.00  0.00    +0.000 OA
ENDROOT
TORSDOF 0
REMARK  Name = ../refined-set-2016/3ary/3ary_pocket.pdb
REMARK  133 active torsions:
REMARK  status: ('A' for Active; 'I' for Inactive)
REMARK    1  A    between atoms: _1  and  _3
REMARK    2  A    between atoms: _3  and  _4
REMARK    3  A    between atoms: _3  and  _6
REMARK    4  A    between atoms: _6  and  _7
REMARK    5  A    between atoms: _17  and  _19
REMARK    6  A    between atoms: _19  and  _20
REMARK    7  A    between atoms: _19  and  _22
REMARK    8  A    between atoms: _22  and  _23
REMARK    9  A    between atoms: _29  and  _31
REMARK   10  A    between atoms: _31  and  _32
REMARK   11  A    between atoms: _31  and  _34
REMARK   12  A    between atoms: _34  and  _35
REMARK   13  A    between atoms: _37  and  _39
REMARK   14  A    between atoms: _39  and  _40
REMARK   15  A    between atoms: _39  and  _42
REMARK   16  A    between atoms: _45  and  _47
REMARK   17  A    between atoms: _47  and  _48
REMARK   18  A    between atoms: _47  and  _50
REMARK   19  A    between atoms: _50  and  _51
REMARK   20  A    between atoms: _53  and  _55
REMARK   21  A    between atoms: _55  and  _56
REMARK   22  A    between atoms: _55  and  _58
REMARK   23  A    between atoms: _61  and  _63
REMARK   24  A    between atoms: _63  and  _64
REMARK   25  A    between atoms: _66  and  _68
REMARK   26  A    between atoms: _68  and  _69
REMARK   27  A    between atoms: _68  and  _71
REMARK   28  A    between atoms: _71  and  _72
REMARK   29  A    between atoms: _82  and  _84
REMARK   30  A    between atoms: _84  and  _85
REMARK   31  A    between atoms: _84  and  _87
REMARK   32  A    between atoms: _87  and  _88
REMARK   33  A    between atoms: _91  and  _93
REMARK   34  A    between atoms: _93  and  _94
REMARK   35  A    between atoms: _93  and  _96
REMARK   36  A    between atoms: _96  and  _97
REMARK   37  A    between atoms: _100  and  _102
REMARK   38  A    between atoms: _102  and  _103
REMARK   39  A    between atoms: _102  and  _105
REMARK   40  A    between atoms: _105  and  _106
REMARK   41  A    between atoms: _106  and  _107
REMARK   42  A    between atoms: _110  and  _112
REMARK   43  A    between atoms: _112  and  _113
REMARK   44  A    between atoms: _112  and  _115
REMARK   45  A    between atoms: _115  and  _116
REMARK   46  A    between atoms: _122  and  _124
REMARK   47  A    between atoms: _124  and  _125
REMARK   48  A    between atoms: _127  and  _129
REMARK   49  A    between atoms: _129  and  _130
REMARK   50  A    between atoms: _132  and  _134
REMARK   51  A    between atoms: _134  and  _135
REMARK   52  A    between atoms: _138  and  _140
REMARK   53  A    between atoms: _140  and  _141
REMARK   54  A    between atoms: _140  and  _143
REMARK   55  A    between atoms: _143  and  _144
REMARK   56  A    between atoms: _144  and  _145
REMARK   57  A    between atoms: _145  and  _146
REMARK   58  A    between atoms: _146  and  _147
REMARK   59  A    between atoms: _151  and  _153
REMARK   60  A    between atoms: _153  and  _154
REMARK   61  A    between atoms: _153  and  _156
REMARK   62  A    between atoms: _156  and  _157
REMARK   63  A    between atoms: _157  and  _158
REMARK   64  A    between atoms: _160  and  _162
REMARK   65  A    between atoms: _162  and  _163
REMARK   66  A    between atoms: _162  and  _165
REMARK   67  A    between atoms: _165  and  _166
REMARK   68  A    between atoms: _171  and  _172
REMARK   69  A    between atoms: _174  and  _176
REMARK   70  A    between atoms: _176  and  _177
REMARK   71  A    between atoms: _176  and  _179
REMARK   72  A    between atoms: _179  and  _180
REMARK   73  A    between atoms: _183  and  _185
REMARK   74  A    between atoms: _185  and  _186
REMARK   75  A    between atoms: _185  and  _188
REMARK   76  A    between atoms: _188  and  _189
REMARK   77  A    between atoms: _195  and  _197
REMARK   78  A    between atoms: _197  and  _198
REMARK   79  A    between atoms: _197  and  _200
REMARK   80  A    between atoms: _200  and  _201
REMARK   81  A    between atoms: _206  and  _207
REMARK   82  A    between atoms: _209  and  _211
REMARK   83  A    between atoms: _211  and  _212
REMARK   84  A    between atoms: _214  and  _216
REMARK   85  A    between atoms: _216  and  _217
REMARK   86  A    between atoms: _219  and  _221
REMARK   87  A    between atoms: _221  and  _222
REMARK   88  A    between atoms: _221  and  _224
REMARK   89  A    between atoms: _224  and  _225
REMARK   90  A    between atoms: _235  and  _237
REMARK   91  A    between atoms: _237  and  _238
REMARK   92  A    between atoms: _237  and  _240
REMARK   93  A    between atoms: _240  and  _241
REMARK   94  A    between atoms: _246  and  _248
REMARK   95  A    between atoms: _248  and  _249
REMARK   96  A    between atoms: _248  and  _251
REMARK   97  A    between atoms: _251  and  _252
REMARK   98  A    between atoms: _257  and  _258
REMARK   99  A    between atoms: _260  and  _262
REMARK  100  A    between atoms: _262  and  _263
REMARK  101  A    between atoms: _262  and  _265
REMARK  102  A    between atoms: _265  and  _266
REMARK  103  A    between atoms: _271  and  _272
REMARK  104  A    between atoms: _274  and  _276
REMARK  105  A    between atoms: _276  and  _277
REMARK  106  A    between atoms: _276  and  _279
REMARK  107  A    between atoms: _279  and  _280
REMARK  108  A    between atoms: _280  and  _281
REMARK  109  A    between atoms: _281  and  _282
REMARK  110  A    between atoms: _291  and  _293
REMARK  111  A    between atoms: _293  and  _294
REMARK  112  A    between atoms: _293  and  _296
REMARK  113  A    between atoms: _296  and  _297
REMARK  114  A    between atoms: _297  and  _298
REMARK  115  A    between atoms: _298  and  _299
REMARK  116  A    between atoms: _299  and  _300
REMARK  117  A    between atoms: _304  and  _306
REMARK  118  A    between atoms: _306  and  _307
REMARK  119  A    between atoms: _306  and  _309
REMARK  120  A    between atoms: _309  and  _310
REMARK  121  A    between atoms: _310  and  _311
REMARK  122  A    between atoms: _314  and  _316
REMARK  123  A    between atoms: _316  and  _317
REMARK  124  A    between atoms: _316  and  _319
REMARK  125  A    between atoms: _322  and  _324
REMARK  126  A    between atoms: _324  and  _325
REMARK  127  A    between atoms: _324  and  _327
REMARK  128  A    between atoms: _327  and  _328
REMARK  129  A    between atoms: _338  and  _340
REMARK  130  A    between atoms: _340  and  _341
REMARK  131  A    between atoms: _340  and  _343
REMARK  132  A    between atoms: _343  and  _344
REMARK  133  A    between atoms: _344  and  _345
REMARK                            x       y       z     vdW  Elec       q    Type
REMARK                         _______ _______ _______ _____ _____    ______ ____
ROOT
ATOM      1  O   HOH     1      11.870 -10.990  21.479  0.00  0.00    +0.000 OA
ENDROOT
TORSDOF 0
REMARK  Name = ../refined-set-2016/3ary/3ary_pocket.pdb
REMARK  133 active torsions:
REMARK  status: ('A' for Active; 'I' for Inactive)
REMARK    1  A    between atoms: _1  and  _3
REMARK    2  A    between atoms: _3  and  _4
REMARK    3  A    between atoms: _3  and  _6
REMARK    4  A    between atoms: _6  and  _7
REMARK    5  A    between atoms: _17  and  _19
REMARK    6  A    between atoms: _19  and  _20
REMARK    7  A    between atoms: _19  and  _22
REMARK    8  A    between atoms: _22  and  _23
REMARK    9  A    between atoms: _29  and  _31
REMARK   10  A    between atoms: _31  and  _32
REMARK   11  A    between atoms: _31  and  _34
REMARK   12  A    between atoms: _34  and  _35
REMARK   13  A    between atoms: _37  and  _39
REMARK   14  A    between atoms: _39  and  _40
REMARK   15  A    between atoms: _39  and  _42
REMARK   16  A    between atoms: _45  and  _47
REMARK   17  A    between atoms: _47  and  _48
REMARK   18  A    between atoms: _47  and  _50
REMARK   19  A    between atoms: _50  and  _51
REMARK   20  A    between atoms: _53  and  _55
REMARK   21  A    between atoms: _55  and  _56
REMARK   22  A    between atoms: _55  and  _58
REMARK   23  A    between atoms: _61  and  _63
REMARK   24  A    between atoms: _63  and  _64
REMARK   25  A    between atoms: _66  and  _68
REMARK   26  A    between atoms: _68  and  _69
REMARK   27  A    between atoms: _68  and  _71
REMARK   28  A    between atoms: _71  and  _72
REMARK   29  A    between atoms: _82  and  _84
REMARK   30  A    between atoms: _84  and  _85
REMARK   31  A    between atoms: _84  and  _87
REMARK   32  A    between atoms: _87  and  _88
REMARK   33  A    between atoms: _91  and  _93
REMARK   34  A    between atoms: _93  and  _94
REMARK   35  A    between atoms: _93  and  _96
REMARK   36  A    between atoms: _96  and  _97
REMARK   37  A    between atoms: _100  and  _102
REMARK   38  A    between atoms: _102  and  _103
REMARK   39  A    between atoms: _102  and  _105
REMARK   40  A    between atoms: _105  and  _106
REMARK   41  A    between atoms: _106  and  _107
REMARK   42  A    between atoms: _110  and  _112
REMARK   43  A    between atoms: _112  and  _113
REMARK   44  A    between atoms: _112  and  _115
REMARK   45  A    between atoms: _115  and  _116
REMARK   46  A    between atoms: _122  and  _124
REMARK   47  A    between atoms: _124  and  _125
REMARK   48  A    between atoms: _127  and  _129
REMARK   49  A    between atoms: _129  and  _130
REMARK   50  A    between atoms: _132  and  _134
REMARK   51  A    between atoms: _134  and  _135
REMARK   52  A    between atoms: _138  and  _140
REMARK   53  A    between atoms: _140  and  _141
REMARK   54  A    between atoms: _140  and  _143
REMARK   55  A    between atoms: _143  and  _144
REMARK   56  A    between atoms: _144  and  _145
REMARK   57  A    between atoms: _145  and  _146
REMARK   58  A    between atoms: _146  and  _147
REMARK   59  A    between atoms: _151  and  _153
REMARK   60  A    between atoms: _153  and  _154
REMARK   61  A    between atoms: _153  and  _156
REMARK   62  A    between atoms: _156  and  _157
REMARK   63  A    between atoms: _157  and  _158
REMARK   64  A    between atoms: _160  and  _162
REMARK   65  A    between atoms: _162  and  _163
REMARK   66  A    between atoms: _162  and  _165
REMARK   67  A    between atoms: _165  and  _166
REMARK   68  A    between atoms: _171  and  _172
REMARK   69  A    between atoms: _174  and  _176
REMARK   70  A    between atoms: _176  and  _177
REMARK   71  A    between atoms: _176  and  _179
REMARK   72  A    between atoms: _179  and  _180
REMARK   73  A    between atoms: _183  and  _185
REMARK   74  A    between atoms: _185  and  _186
REMARK   75  A    between atoms: _185  and  _188
REMARK   76  A    between atoms: _188  and  _189
REMARK   77  A    between atoms: _195  and  _197
REMARK   78  A    between atoms: _197  and  _198
REMARK   79  A    between atoms: _197  and  _200
REMARK   80  A    between atoms: _200  and  _201
REMARK   81  A    between atoms: _206  and  _207
REMARK   82  A    between atoms: _209  and  _211
REMARK   83  A    between atoms: _211  and  _212
REMARK   84  A    between atoms: _214  and  _216
REMARK   85  A    between atoms: _216  and  _217
REMARK   86  A    between atoms: _219  and  _221
REMARK   87  A    between atoms: _221  and  _222
REMARK   88  A    between atoms: _221  and  _224
REMARK   89  A    between atoms: _224  and  _225
REMARK   90  A    between atoms: _235  and  _237
REMARK   91  A    between atoms: _237  and  _238
REMARK   92  A    between atoms: _237  and  _240
REMARK   93  A    between atoms: _240  and  _241
REMARK   94  A    between atoms: _246  and  _248
REMARK   95  A    between atoms: _248  and  _249
REMARK   96  A    between atoms: _248  and  _251
REMARK   97  A    between atoms: _251  and  _252
REMARK   98  A    between atoms: _257  and  _258
REMARK   99  A    between atoms: _260  and  _262
REMARK  100  A    between atoms: _262  and  _263
REMARK  101  A    between atoms: _262  and  _265
REMARK  102  A    between atoms: _265  and  _266
REMARK  103  A    between atoms: _271  and  _272
REMARK  104  A    between atoms: _274  and  _276
REMARK  105  A    between atoms: _276  and  _277
REMARK  106  A    between atoms: _276  and  _279
REMARK  107  A    between atoms: _279  and  _280
REMARK  108  A    between atoms: _280  and  _281
REMARK  109  A    between atoms: _281  and  _282
REMARK  110  A    between atoms: _291  and  _293
REMARK  111  A    between atoms: _293  and  _294
REMARK  112  A    between atoms: _293  and  _296
REMARK  113  A    between atoms: _296  and  _297
REMARK  114  A    between atoms: _297  and  _298
REMARK  115  A    between atoms: _298  and  _299
REMARK  116  A    between atoms: _299  and  _300
REMARK  117  A    between atoms: _304  and  _306
REMARK  118  A    between atoms: _306  and  _307
REMARK  119  A    between atoms: _306  and  _309
REMARK  120  A    between atoms: _309  and  _310
REMARK  121  A    between atoms: _310  and  _311
REMARK  122  A    between atoms: _314  and  _316
REMARK  123  A    between atoms: _316  and  _317
REMARK  124  A    between atoms: _316  and  _319
REMARK  125  A    between atoms: _322  and  _324
REMARK  126  A    between atoms: _324  and  _325
REMARK  127  A    between atoms: _324  and  _327
REMARK  128  A    between atoms: _327  and  _328
REMARK  129  A    between atoms: _338  and  _340
REMARK  130  A    between atoms: _340  and  _341
REMARK  131  A    between atoms: _340  and  _343
REMARK  132  A    between atoms: _343  and  _344
REMARK  133  A    between atoms: _344  and  _345
REMARK                            x       y       z     vdW  Elec       q    Type
REMARK                         _______ _______ _______ _____ _____    ______ ____
ROOT
ATOM      1  O   HOH     1      18.480 -11.875  16.179  0.00  0.00    +0.000 OA
ENDROOT
TORSDOF 0
REMARK  Name = ../refined-set-2016/3ary/3ary_pocket.pdb
REMARK  133 active torsions:
REMARK  status: ('A' for Active; 'I' for Inactive)
REMARK    1  A    between atoms: _1  and  _3
REMARK    2  A    between atoms: _3  and  _4
REMARK    3  A    between atoms: _3  and  _6
REMARK    4  A    between atoms: _6  and  _7
REMARK    5  A    between atoms: _17  and  _19
REMARK    6  A    between atoms: _19  and  _20
REMARK    7  A    between atoms: _19  and  _22
REMARK    8  A    between atoms: _22  and  _23
REMARK    9  A    between atoms: _29  and  _31
REMARK   10  A    between atoms: _31  and  _32
REMARK   11  A    between atoms: _31  and  _34
REMARK   12  A    between atoms: _34  and  _35
REMARK   13  A    between atoms: _37  and  _39
REMARK   14  A    between atoms: _39  and  _40
REMARK   15  A    between atoms: _39  and  _42
REMARK   16  A    between atoms: _45  and  _47
REMARK   17  A    between atoms: _47  and  _48
REMARK   18  A    between atoms: _47  and  _50
REMARK   19  A    between atoms: _50  and  _51
REMARK   20  A    between atoms: _53  and  _55
REMARK   21  A    between atoms: _55  and  _56
REMARK   22  A    between atoms: _55  and  _58
REMARK   23  A    between atoms: _61  and  _63
REMARK   24  A    between atoms: _63  and  _64
REMARK   25  A    between atoms: _66  and  _68
REMARK   26  A    between atoms: _68  and  _69
REMARK   27  A    between atoms: _68  and  _71
REMARK   28  A    between atoms: _71  and  _72
REMARK   29  A    between atoms: _82  and  _84
REMARK   30  A    between atoms: _84  and  _85
REMARK   31  A    between atoms: _84  and  _87
REMARK   32  A    between atoms: _87  and  _88
REMARK   33  A    between atoms: _91  and  _93
REMARK   34  A    between atoms: _93  and  _94
REMARK   35  A    between atoms: _93  and  _96
REMARK   36  A    between atoms: _96  and  _97
REMARK   37  A    between atoms: _100  and  _102
REMARK   38  A    between atoms: _102  and  _103
REMARK   39  A    between atoms: _102  and  _105
REMARK   40  A    between atoms: _105  and  _106
REMARK   41  A    between atoms: _106  and  _107
REMARK   42  A    between atoms: _110  and  _112
REMARK   43  A    between atoms: _112  and  _113
REMARK   44  A    between atoms: _112  and  _115
REMARK   45  A    between atoms: _115  and  _116
REMARK   46  A    between atoms: _122  and  _124
REMARK   47  A    between atoms: _124  and  _125
REMARK   48  A    between atoms: _127  and  _129
REMARK   49  A    between atoms: _129  and  _130
REMARK   50  A    between atoms: _132  and  _134
REMARK   51  A    between atoms: _134  and  _135
REMARK   52  A    between atoms: _138  and  _140
REMARK   53  A    between atoms: _140  and  _141
REMARK   54  A    between atoms: _140  and  _143
REMARK   55  A    between atoms: _143  and  _144
REMARK   56  A    between atoms: _144  and  _145
REMARK   57  A    between atoms: _145  and  _146
REMARK   58  A    between atoms: _146  and  _147
REMARK   59  A    between atoms: _151  and  _153
REMARK   60  A    between atoms: _153  and  _154
REMARK   61  A    between atoms: _153  and  _156
REMARK   62  A    between atoms: _156  and  _157
REMARK   63  A    between atoms: _157  and  _158
REMARK   64  A    between atoms: _160  and  _162
REMARK   65  A    between atoms: _162  and  _163
REMARK   66  A    between atoms: _162  and  _165
REMARK   67  A    between atoms: _165  and  _166
REMARK   68  A    between atoms: _171  and  _172
REMARK   69  A    between atoms: _174  and  _176
REMARK   70  A    between atoms: _176  and  _177
REMARK   71  A    between atoms: _176  and  _179
REMARK   72  A    between atoms: _179  and  _180
REMARK   73  A    between atoms: _183  and  _185
REMARK   74  A    between atoms: _185  and  _186
REMARK   75  A    between atoms: _185  and  _188
REMARK   76  A    between atoms: _188  and  _189
REMARK   77  A    between atoms: _195  and  _197
REMARK   78  A    between atoms: _197  and  _198
REMARK   79  A    between atoms: _197  and  _200
REMARK   80  A    between atoms: _200  and  _201
REMARK   81  A    between atoms: _206  and  _207
REMARK   82  A    between atoms: _209  and  _211
REMARK   83  A    between atoms: _211  and  _212
REMARK   84  A    between atoms: _214  and  _216
REMARK   85  A    between atoms: _216  and  _217
REMARK   86  A    between atoms: _219  and  _221
REMARK   87  A    between atoms: _221  and  _222
REMARK   88  A    between atoms: _221  and  _224
REMARK   89  A    between atoms: _224  and  _225
REMARK   90  A    between atoms: _235  and  _237
REMARK   91  A    between atoms: _237  and  _238
REMARK   92  A    between atoms: _237  and  _240
REMARK   93  A    between atoms: _240  and  _241
REMARK   94  A    between atoms: _246  and  _248
REMARK   95  A    between atoms: _248  and  _249
REMARK   96  A    between atoms: _248  and  _251
REMARK   97  A    between atoms: _251  and  _252
REMARK   98  A    between atoms: _257  and  _258
REMARK   99  A    between atoms: _260  and  _262
REMARK  100  A    between atoms: _262  and  _263
REMARK  101  A    between atoms: _262  and  _265
REMARK  102  A    between atoms: _265  and  _266
REMARK  103  A    between atoms: _271  and  _272
REMARK  104  A    between atoms: _274  and  _276
REMARK  105  A    between atoms: _276  and  _277
REMARK  106  A    between atoms: _276  and  _279
REMARK  107  A    between atoms: _279  and  _280
REMARK  108  A    between atoms: _280  and  _281
REMARK  109  A    between atoms: _281  and  _282
REMARK  110  A    between atoms: _291  and  _293
REMARK  111  A    between atoms: _293  and  _294
REMARK  112  A    between atoms: _293  and  _296
REMARK  113  A    between atoms: _296  and  _297
REMARK  114  A    between atoms: _297  and  _298
REMARK  115  A    between atoms: _298  and  _299
REMARK  116  A    between atoms: _299  and  _300
REMARK  117  A    between atoms: _304  and  _306
REMARK  118  A    between atoms: _306  and  _307
REMARK  119  A    between atoms: _306  and  _309
REMARK  120  A    between atoms: _309  and  _310
REMARK  121  A    between atoms: _310  and  _311
REMARK  122  A    between atoms: _314  and  _316
REMARK  123  A    between atoms: _316  and  _317
REMARK  124  A    between atoms: _316  and  _319
REMARK  125  A    between atoms: _322  and  _324
REMARK  126  A    between atoms: _324  and  _325
REMARK  127  A    between atoms: _324  and  _327
REMARK  128  A    between atoms: _327  and  _328
REMARK  129  A    between atoms: _338  and  _340
REMARK  130  A    between atoms: _340  and  _341
REMARK  131  A    between atoms: _340  and  _343
REMARK  132  A    between atoms: _343  and  _344
REMARK  133  A    between atoms: _344  and  _345
REMARK                            x       y       z     vdW  Elec       q    Type
REMARK                         _______ _______ _______ _____ _____    ______ ____
ROOT
ATOM      1  O   HOH     1      20.359  -5.588  23.623  0.00  0.00    +0.000 OA
ENDROOT
TORSDOF 0
REMARK  Name = ../refined-set-2016/3ary/3ary_pocket.pdb
REMARK  133 active torsions:
REMARK  status: ('A' for Active; 'I' for Inactive)
REMARK    1  A    between atoms: _1  and  _3
REMARK    2  A    between atoms: _3  and  _4
REMARK    3  A    between atoms: _3  and  _6
REMARK    4  A    between atoms: _6  and  _7
REMARK    5  A    between atoms: _17  and  _19
REMARK    6  A    between atoms: _19  and  _20
REMARK    7  A    between atoms: _19  and  _22
REMARK    8  A    between atoms: _22  and  _23
REMARK    9  A    between atoms: _29  and  _31
REMARK   10  A    between atoms: _31  and  _32
REMARK   11  A    between atoms: _31  and  _34
REMARK   12  A    between atoms: _34  and  _35
REMARK   13  A    between atoms: _37  and  _39
REMARK   14  A    between atoms: _39  and  _40
REMARK   15  A    between atoms: _39  and  _42
REMARK   16  A    between atoms: _45  and  _47
REMARK   17  A    between atoms: _47  and  _48
REMARK   18  A    between atoms: _47  and  _50
REMARK   19  A    between atoms: _50  and  _51
REMARK   20  A    between atoms: _53  and  _55
REMARK   21  A    between atoms: _55  and  _56
REMARK   22  A    between atoms: _55  and  _58
REMARK   23  A    between atoms: _61  and  _63
REMARK   24  A    between atoms: _63  and  _64
REMARK   25  A    between atoms: _66  and  _68
REMARK   26  A    between atoms: _68  and  _69
REMARK   27  A    between atoms: _68  and  _71
REMARK   28  A    between atoms: _71  and  _72
REMARK   29  A    between atoms: _82  and  _84
REMARK   30  A    between atoms: _84  and  _85
REMARK   31  A    between atoms: _84  and  _87
REMARK   32  A    between atoms: _87  and  _88
REMARK   33  A    between atoms: _91  and  _93
REMARK   34  A    between atoms: _93  and  _94
REMARK   35  A    between atoms: _93  and  _96
REMARK   36  A    between atoms: _96  and  _97
REMARK   37  A    between atoms: _100  and  _102
REMARK   38  A    between atoms: _102  and  _103
REMARK   39  A    between atoms: _102  and  _105
REMARK   40  A    between atoms: _105  and  _106
REMARK   41  A    between atoms: _106  and  _107
REMARK   42  A    between atoms: _110  and  _112
REMARK   43  A    between atoms: _112  and  _113
REMARK   44  A    between atoms: _112  and  _115
REMARK   45  A    between atoms: _115  and  _116
REMARK   46  A    between atoms: _122  and  _124
REMARK   47  A    between atoms: _124  and  _125
REMARK   48  A    between atoms: _127  and  _129
REMARK   49  A    between atoms: _129  and  _130
REMARK   50  A    between atoms: _132  and  _134
REMARK   51  A    between atoms: _134  and  _135
REMARK   52  A    between atoms: _138  and  _140
REMARK   53  A    between atoms: _140  and  _141
REMARK   54  A    between atoms: _140  and  _143
REMARK   55  A    between atoms: _143  and  _144
REMARK   56  A    between atoms: _144  and  _145
REMARK   57  A    between atoms: _145  and  _146
REMARK   58  A    between atoms: _146  and  _147
REMARK   59  A    between atoms: _151  and  _153
REMARK   60  A    between atoms: _153  and  _154
REMARK   61  A    between atoms: _153  and  _156
REMARK   62  A    between atoms: _156  and  _157
REMARK   63  A    between atoms: _157  and  _158
REMARK   64  A    between atoms: _160  and  _162
REMARK   65  A    between atoms: _162  and  _163
REMARK   66  A    between atoms: _162  and  _165
REMARK   67  A    between atoms: _165  and  _166
REMARK   68  A    between atoms: _171  and  _172
REMARK   69  A    between atoms: _174  and  _176
REMARK   70  A    between atoms: _176  and  _177
REMARK   71  A    between atoms: _176  and  _179
REMARK   72  A    between atoms: _179  and  _180
REMARK   73  A    between atoms: _183  and  _185
REMARK   74  A    between atoms: _185  and  _186
REMARK   75  A    between atoms: _185  and  _188
REMARK   76  A    between atoms: _188  and  _189
REMARK   77  A    between atoms: _195  and  _197
REMARK   78  A    between atoms: _197  and  _198
REMARK   79  A    between atoms: _197  and  _200
REMARK   80  A    between atoms: _200  and  _201
REMARK   81  A    between atoms: _206  and  _207
REMARK   82  A    between atoms: _209  and  _211
REMARK   83  A    between atoms: _211  and  _212
REMARK   84  A    between atoms: _214  and  _216
REMARK   85  A    between atoms: _216  and  _217
REMARK   86  A    between atoms: _219  and  _221
REMARK   87  A    between atoms: _221  and  _222
REMARK   88  A    between atoms: _221  and  _224
REMARK   89  A    between atoms: _224  and  _225
REMARK   90  A    between atoms: _235  and  _237
REMARK   91  A    between atoms: _237  and  _238
REMARK   92  A    between atoms: _237  and  _240
REMARK   93  A    between atoms: _240  and  _241
REMARK   94  A    between atoms: _246  and  _248
REMARK   95  A    between atoms: _248  and  _249
REMARK   96  A    between atoms: _248  and  _251
REMARK   97  A    between atoms: _251  and  _252
REMARK   98  A    between atoms: _257  and  _258
REMARK   99  A    between atoms: _260  and  _262
REMARK  100  A    between atoms: _262  and  _263
REMARK  101  A    between atoms: _262  and  _265
REMARK  102  A    between atoms: _265  and  _266
REMARK  103  A    between atoms: _271  and  _272
REMARK  104  A    between atoms: _274  and  _276
REMARK  105  A    between atoms: _276  and  _277
REMARK  106  A    between atoms: _276  and  _279
REMARK  107  A    between atoms: _279  and  _280
REMARK  108  A    between atoms: _280  and  _281
REMARK  109  A    between atoms: _281  and  _282
REMARK  110  A    between atoms: _291  and  _293
REMARK  111  A    between atoms: _293  and  _294
REMARK  112  A    between atoms: _293  and  _296
REMARK  113  A    between atoms: _296  and  _297
REMARK  114  A    between atoms: _297  and  _298
REMARK  115  A    between atoms: _298  and  _299
REMARK  116  A    between atoms: _299  and  _300
REMARK  117  A    between atoms: _304  and  _306
REMARK  118  A    between atoms: _306  and  _307
REMARK  119  A    between atoms: _306  and  _309
REMARK  120  A    between atoms: _309  and  _310
REMARK  121  A    between atoms: _310  and  _311
REMARK  122  A    between atoms: _314  and  _316
REMARK  123  A    between atoms: _316  and  _317
REMARK  124  A    between atoms: _316  and  _319
REMARK  125  A    between atoms: _322  and  _324
REMARK  126  A    between atoms: _324  and  _325
REMARK  127  A    between atoms: _324  and  _327
REMARK  128  A    between atoms: _327  and  _328
REMARK  129  A    between atoms: _338  and  _340
REMARK  130  A    between atoms: _340  and  _341
REMARK  131  A    between atoms: _340  and  _343
REMARK  132  A    between atoms: _343  and  _344
REMARK  133  A    between atoms: _344  and  _345
REMARK                            x       y       z     vdW  Elec       q    Type
REMARK                         _______ _______ _______ _____ _____    ______ ____
ROOT
ATOM      1  O   HOH     1       8.761 -11.665  28.226  0.00  0.00    +0.000 OA
ENDROOT
TORSDOF 0
REMARK  Name = ../refined-set-2016/3ary/3ary_pocket.pdb
REMARK  133 active torsions:
REMARK  status: ('A' for Active; 'I' for Inactive)
REMARK    1  A    between atoms: _1  and  _3
REMARK    2  A    between atoms: _3  and  _4
REMARK    3  A    between atoms: _3  and  _6
REMARK    4  A    between atoms: _6  and  _7
REMARK    5  A    between atoms: _17  and  _19
REMARK    6  A    between atoms: _19  and  _20
REMARK    7  A    between atoms: _19  and  _22
REMARK    8  A    between atoms: _22  and  _23
REMARK    9  A    between atoms: _29  and  _31
REMARK   10  A    between atoms: _31  and  _32
REMARK   11  A    between atoms: _31  and  _34
REMARK   12  A    between atoms: _34  and  _35
REMARK   13  A    between atoms: _37  and  _39
REMARK   14  A    between atoms: _39  and  _40
REMARK   15  A    between atoms: _39  and  _42
REMARK   16  A    between atoms: _45  and  _47
REMARK   17  A    between atoms: _47  and  _48
REMARK   18  A    between atoms: _47  and  _50
REMARK   19  A    between atoms: _50  and  _51
REMARK   20  A    between atoms: _53  and  _55
REMARK   21  A    between atoms: _55  and  _56
REMARK   22  A    between atoms: _55  and  _58
REMARK   23  A    between atoms: _61  and  _63
REMARK   24  A    between atoms: _63  and  _64
REMARK   25  A    between atoms: _66  and  _68
REMARK   26  A    between atoms: _68  and  _69
REMARK   27  A    between atoms: _68  and  _71
REMARK   28  A    between atoms: _71  and  _72
REMARK   29  A    between atoms: _82  and  _84
REMARK   30  A    between atoms: _84  and  _85
REMARK   31  A    between atoms: _84  and  _87
REMARK   32  A    between atoms: _87  and  _88
REMARK   33  A    between atoms: _91  and  _93
REMARK   34  A    between atoms: _93  and  _94
REMARK   35  A    between atoms: _93  and  _96
REMARK   36  A    between atoms: _96  and  _97
REMARK   37  A    between atoms: _100  and  _102
REMARK   38  A    between atoms: _102  and  _103
REMARK   39  A    between atoms: _102  and  _105
REMARK   40  A    between atoms: _105  and  _106
REMARK   41  A    between atoms: _106  and  _107
REMARK   42  A    between atoms: _110  and  _112
REMARK   43  A    between atoms: _112  and  _113
REMARK   44  A    between atoms: _112  and  _115
REMARK   45  A    between atoms: _115  and  _116
REMARK   46  A    between atoms: _122  and  _124
REMARK   47  A    between atoms: _124  and  _125
REMARK   48  A    between atoms: _127  and  _129
REMARK   49  A    between atoms: _129  and  _130
REMARK   50  A    between atoms: _132  and  _134
REMARK   51  A    between atoms: _134  and  _135
REMARK   52  A    between atoms: _138  and  _140
REMARK   53  A    between atoms: _140  and  _141
REMARK   54  A    between atoms: _140  and  _143
REMARK   55  A    between atoms: _143  and  _144
REMARK   56  A    between atoms: _144  and  _145
REMARK   57  A    between atoms: _145  and  _146
REMARK   58  A    between atoms: _146  and  _147
REMARK   59  A    between atoms: _151  and  _153
REMARK   60  A    between atoms: _153  and  _154
REMARK   61  A    between atoms: _153  and  _156
REMARK   62  A    between atoms: _156  and  _157
REMARK   63  A    between atoms: _157  and  _158
REMARK   64  A    between atoms: _160  and  _162
REMARK   65  A    between atoms: _162  and  _163
REMARK   66  A    between atoms: _162  and  _165
REMARK   67  A    between atoms: _165  and  _166
REMARK   68  A    between atoms: _171  and  _172
REMARK   69  A    between atoms: _174  and  _176
REMARK   70  A    between atoms: _176  and  _177
REMARK   71  A    between atoms: _176  and  _179
REMARK   72  A    between atoms: _179  and  _180
REMARK   73  A    between atoms: _183  and  _185
REMARK   74  A    between atoms: _185  and  _186
REMARK   75  A    between atoms: _185  and  _188
REMARK   76  A    between atoms: _188  and  _189
REMARK   77  A    between atoms: _195  and  _197
REMARK   78  A    between atoms: _197  and  _198
REMARK   79  A    between atoms: _197  and  _200
REMARK   80  A    between atoms: _200  and  _201
REMARK   81  A    between atoms: _206  and  _207
REMARK   82  A    between atoms: _209  and  _211
REMARK   83  A    between atoms: _211  and  _212
REMARK   84  A    between atoms: _214  and  _216
REMARK   85  A    between atoms: _216  and  _217
REMARK   86  A    between atoms: _219  and  _221
REMARK   87  A    between atoms: _221  and  _222
REMARK   88  A    between atoms: _221  and  _224
REMARK   89  A    between atoms: _224  and  _225
REMARK   90  A    between atoms: _235  and  _237
REMARK   91  A    between atoms: _237  and  _238
REMARK   92  A    between atoms: _237  and  _240
REMARK   93  A    between atoms: _240  and  _241
REMARK   94  A    between atoms: _246  and  _248
REMARK   95  A    between atoms: _248  and  _249
REMARK   96  A    between atoms: _248  and  _251
REMARK   97  A    between atoms: _251  and  _252
REMARK   98  A    between atoms: _257  and  _258
REMARK   99  A    between atoms: _260  and  _262
REMARK  100  A    between atoms: _262  and  _263
REMARK  101  A    between atoms: _262  and  _265
REMARK  102  A    between atoms: _265  and  _266
REMARK  103  A    between atoms: _271  and  _272
REMARK  104  A    between atoms: _274  and  _276
REMARK  105  A    between atoms: _276  and  _277
REMARK  106  A    between atoms: _276  and  _279
REMARK  107  A    between atoms: _279  and  _280
REMARK  108  A    between atoms: _280  and  _281
REMARK  109  A    between atoms: _281  and  _282
REMARK  110  A    between atoms: _291  and  _293
REMARK  111  A    between atoms: _293  and  _294
REMARK  112  A    between atoms: _293  and  _296
REMARK  113  A    between atoms: _296  and  _297
REMARK  114  A    between atoms: _297  and  _298
REMARK  115  A    between atoms: _298  and  _299
REMARK  116  A    between atoms: _299  and  _300
REMARK  117  A    between atoms: _304  and  _306
REMARK  118  A    between atoms: _306  and  _307
REMARK  119  A    between atoms: _306  and  _309
REMARK  120  A    between atoms: _309  and  _310
REMARK  121  A    between atoms: _310  and  _311
REMARK  122  A    between atoms: _314  and  _316
REMARK  123  A    between atoms: _316  and  _317
REMARK  124  A    between atoms: _316  and  _319
REMARK  125  A    between atoms: _322  and  _324
REMARK  126  A    between atoms: _324  and  _325
REMARK  127  A    between atoms: _324  and  _327
REMARK  128  A    between atoms: _327  and  _328
REMARK  129  A    between atoms: _338  and  _340
REMARK  130  A    between atoms: _340  and  _341
REMARK  131  A    between atoms: _340  and  _343
REMARK  132  A    between atoms: _343  and  _344
REMARK  133  A    between atoms: _344  and  _345
REMARK                            x       y       z     vdW  Elec       q    Type
REMARK                         _______ _______ _______ _____ _____    ______ ____
ROOT
ATOM      1  O   HOH     1      21.043 -17.603  24.597  0.00  0.00    +0.000 OA
ENDROOT
TORSDOF 0
REMARK  Name = ../refined-set-2016/3ary/3ary_pocket.pdb
REMARK  133 active torsions:
REMARK  status: ('A' for Active; 'I' for Inactive)
REMARK    1  A    between atoms: _1  and  _3
REMARK    2  A    between atoms: _3  and  _4
REMARK    3  A    between atoms: _3  and  _6
REMARK    4  A    between atoms: _6  and  _7
REMARK    5  A    between atoms: _17  and  _19
REMARK    6  A    between atoms: _19  and  _20
REMARK    7  A    between atoms: _19  and  _22
REMARK    8  A    between atoms: _22  and  _23
REMARK    9  A    between atoms: _29  and  _31
REMARK   10  A    between atoms: _31  and  _32
REMARK   11  A    between atoms: _31  and  _34
REMARK   12  A    between atoms: _34  and  _35
REMARK   13  A    between atoms: _37  and  _39
REMARK   14  A    between atoms: _39  and  _40
REMARK   15  A    between atoms: _39  and  _42
REMARK   16  A    between atoms: _45  and  _47
REMARK   17  A    between atoms: _47  and  _48
REMARK   18  A    between atoms: _47  and  _50
REMARK   19  A    between atoms: _50  and  _51
REMARK   20  A    between atoms: _53  and  _55
REMARK   21  A    between atoms: _55  and  _56
REMARK   22  A    between atoms: _55  and  _58
REMARK   23  A    between atoms: _61  and  _63
REMARK   24  A    between atoms: _63  and  _64
REMARK   25  A    between atoms: _66  and  _68
REMARK   26  A    between atoms: _68  and  _69
REMARK   27  A    between atoms: _68  and  _71
REMARK   28  A    between atoms: _71  and  _72
REMARK   29  A    between atoms: _82  and  _84
REMARK   30  A    between atoms: _84  and  _85
REMARK   31  A    between atoms: _84  and  _87
REMARK   32  A    between atoms: _87  and  _88
REMARK   33  A    between atoms: _91  and  _93
REMARK   34  A    between atoms: _93  and  _94
REMARK   35  A    between atoms: _93  and  _96
REMARK   36  A    between atoms: _96  and  _97
REMARK   37  A    between atoms: _100  and  _102
REMARK   38  A    between atoms: _102  and  _103
REMARK   39  A    between atoms: _102  and  _105
REMARK   40  A    between atoms: _105  and  _106
REMARK   41  A    between atoms: _106  and  _107
REMARK   42  A    between atoms: _110  and  _112
REMARK   43  A    between atoms: _112  and  _113
REMARK   44  A    between atoms: _112  and  _115
REMARK   45  A    between atoms: _115  and  _116
REMARK   46  A    between atoms: _122  and  _124
REMARK   47  A    between atoms: _124  and  _125
REMARK   48  A    between atoms: _127  and  _129
REMARK   49  A    between atoms: _129  and  _130
REMARK   50  A    between atoms: _132  and  _134
REMARK   51  A    between atoms: _134  and  _135
REMARK   52  A    between atoms: _138  and  _140
REMARK   53  A    between atoms: _140  and  _141
REMARK   54  A    between atoms: _140  and  _143
REMARK   55  A    between atoms: _143  and  _144
REMARK   56  A    between atoms: _144  and  _145
REMARK   57  A    between atoms: _145  and  _146
REMARK   58  A    between atoms: _146  and  _147
REMARK   59  A    between atoms: _151  and  _153
REMARK   60  A    between atoms: _153  and  _154
REMARK   61  A    between atoms: _153  and  _156
REMARK   62  A    between atoms: _156  and  _157
REMARK   63  A    between atoms: _157  and  _158
REMARK   64  A    between atoms: _160  and  _162
REMARK   65  A    between atoms: _162  and  _163
REMARK   66  A    between atoms: _162  and  _165
REMARK   67  A    between atoms: _165  and  _166
REMARK   68  A    between atoms: _171  and  _172
REMARK   69  A    between atoms: _174  and  _176
REMARK   70  A    between atoms: _176  and  _177
REMARK   71  A    between atoms: _176  and  _179
REMARK   72  A    between atoms: _179  and  _180
REMARK   73  A    between atoms: _183  and  _185
REMARK   74  A    between atoms: _185  and  _186
REMARK   75  A    between atoms: _185  and  _188
REMARK   76  A    between atoms: _188  and  _189
REMARK   77  A    between atoms: _195  and  _197
REMARK   78  A    between atoms: _197  and  _198
REMARK   79  A    between atoms: _197  and  _200
REMARK   80  A    between atoms: _200  and  _201
REMARK   81  A    between atoms: _206  and  _207
REMARK   82  A    between atoms: _209  and  _211
REMARK   83  A    between atoms: _211  and  _212
REMARK   84  A    between atoms: _214  and  _216
REMARK   85  A    between atoms: _216  and  _217
REMARK   86  A    between atoms: _219  and  _221
REMARK   87  A    between atoms: _221  and  _222
REMARK   88  A    between atoms: _221  and  _224
REMARK   89  A    between atoms: _224  and  _225
REMARK   90  A    between atoms: _235  and  _237
REMARK   91  A    between atoms: _237  and  _238
REMARK   92  A    between atoms: _237  and  _240
REMARK   93  A    between atoms: _240  and  _241
REMARK   94  A    between atoms: _246  and  _248
REMARK   95  A    between atoms: _248  and  _249
REMARK   96  A    between atoms: _248  and  _251
REMARK   97  A    between atoms: _251  and  _252
REMARK   98  A    between atoms: _257  and  _258
REMARK   99  A    between atoms: _260  and  _262
REMARK  100  A    between atoms: _262  and  _263
REMARK  101  A    between atoms: _262  and  _265
REMARK  102  A    between atoms: _265  and  _266
REMARK  103  A    between atoms: _271  and  _272
REMARK  104  A    between atoms: _274  and  _276
REMARK  105  A    between atoms: _276  and  _277
REMARK  106  A    between atoms: _276  and  _279
REMARK  107  A    between atoms: _279  and  _280
REMARK  108  A    between atoms: _280  and  _281
REMARK  109  A    between atoms: _281  and  _282
REMARK  110  A    between atoms: _291  and  _293
REMARK  111  A    between atoms: _293  and  _294
REMARK  112  A    between atoms: _293  and  _296
REMARK  113  A    between atoms: _296  and  _297
REMARK  114  A    between atoms: _297  and  _298
REMARK  115  A    between atoms: _298  and  _299
REMARK  116  A    between atoms: _299  and  _300
REMARK  117  A    between atoms: _304  and  _306
REMARK  118  A    between atoms: _306  and  _307
REMARK  119  A    between atoms: _306  and  _309
REMARK  120  A    between atoms: _309  and  _310
REMARK  121  A    between atoms: _310  and  _311
REMARK  122  A    between atoms: _314  and  _316
REMARK  123  A    between atoms: _316  and  _317
REMARK  124  A    between atoms: _316  and  _319
REMARK  125  A    between atoms: _322  and  _324
REMARK  126  A    between atoms: _324  and  _325
REMARK  127  A    between atoms: _324  and  _327
REMARK  128  A    between atoms: _327  and  _328
REMARK  129  A    between atoms: _338  and  _340
REMARK  130  A    between atoms: _340  and  _341
REMARK  131  A    between atoms: _340  and  _343
REMARK  132  A    between atoms: _343  and  _344
REMARK  133  A    between atoms: _344  and  _345
REMARK                            x       y       z     vdW  Elec       q    Type
REMARK                         _______ _______ _______ _____ _____    ______ ____
ROOT
ATOM      1  O   HOH     1      11.055  -3.338  21.282  0.00  0.00    +0.000 OA
ENDROOT
TORSDOF 0
REMARK  Name = ../refined-set-2016/3ary/3ary_pocket.pdb
REMARK  133 active torsions:
REMARK  status: ('A' for Active; 'I' for Inactive)
REMARK    1  A    between atoms: _1  and  _3
REMARK    2  A    between atoms: _3  and  _4
REMARK    3  A    between atoms: _3  and  _6
REMARK    4  A    between atoms: _6  and  _7
REMARK    5  A    between atoms: _17  and  _19
REMARK    6  A    between atoms: _19  and  _20
REMARK    7  A    between atoms: _19  and  _22
REMARK    8  A    between atoms: _22  and  _23
REMARK    9  A    between atoms: _29  and  _31
REMARK   10  A    between atoms: _31  and  _32
REMARK   11  A    between atoms: _31  and  _34
REMARK   12  A    between atoms: _34  and  _35
REMARK   13  A    between atoms: _37  and  _39
REMARK   14  A    between atoms: _39  and  _40
REMARK   15  A    between atoms: _39  and  _42
REMARK   16  A    between atoms: _45  and  _47
REMARK   17  A    between atoms: _47  and  _48
REMARK   18  A    between atoms: _47  and  _50
REMARK   19  A    between atoms: _50  and  _51
REMARK   20  A    between atoms: _53  and  _55
REMARK   21  A    between atoms: _55  and  _56
REMARK   22  A    between atoms: _55  and  _58
REMARK   23  A    between atoms: _61  and  _63
REMARK   24  A    between atoms: _63  and  _64
REMARK   25  A    between atoms: _66  and  _68
REMARK   26  A    between atoms: _68  and  _69
REMARK   27  A    between atoms: _68  and  _71
REMARK   28  A    between atoms: _71  and  _72
REMARK   29  A    between atoms: _82  and  _84
REMARK   30  A    between atoms: _84  and  _85
REMARK   31  A    between atoms: _84  and  _87
REMARK   32  A    between atoms: _87  and  _88
REMARK   33  A    between atoms: _91  and  _93
REMARK   34  A    between atoms: _93  and  _94
REMARK   35  A    between atoms: _93  and  _96
REMARK   36  A    between atoms: _96  and  _97
REMARK   37  A    between atoms: _100  and  _102
REMARK   38  A    between atoms: _102  and  _103
REMARK   39  A    between atoms: _102  and  _105
REMARK   40  A    between atoms: _105  and  _106
REMARK   41  A    between atoms: _106  and  _107
REMARK   42  A    between atoms: _110  and  _112
REMARK   43  A    between atoms: _112  and  _113
REMARK   44  A    between atoms: _112  and  _115
REMARK   45  A    between atoms: _115  and  _116
REMARK   46  A    between atoms: _122  and  _124
REMARK   47  A    between atoms: _124  and  _125
REMARK   48  A    between atoms: _127  and  _129
REMARK   49  A    between atoms: _129  and  _130
REMARK   50  A    between atoms: _132  and  _134
REMARK   51  A    between atoms: _134  and  _135
REMARK   52  A    between atoms: _138  and  _140
REMARK   53  A    between atoms: _140  and  _141
REMARK   54  A    between atoms: _140  and  _143
REMARK   55  A    between atoms: _143  and  _144
REMARK   56  A    between atoms: _144  and  _145
REMARK   57  A    between atoms: _145  and  _146
REMARK   58  A    between atoms: _146  and  _147
REMARK   59  A    between atoms: _151  and  _153
REMARK   60  A    between atoms: _153  and  _154
REMARK   61  A    between atoms: _153  and  _156
REMARK   62  A    between atoms: _156  and  _157
REMARK   63  A    between atoms: _157  and  _158
REMARK   64  A    between atoms: _160  and  _162
REMARK   65  A    between atoms: _162  and  _163
REMARK   66  A    between atoms: _162  and  _165
REMARK   67  A    between atoms: _165  and  _166
REMARK   68  A    between atoms: _171  and  _172
REMARK   69  A    between atoms: _174  and  _176
REMARK   70  A    between atoms: _176  and  _177
REMARK   71  A    between atoms: _176  and  _179
REMARK   72  A    between atoms: _179  and  _180
REMARK   73  A    between atoms: _183  and  _185
REMARK   74  A    between atoms: _185  and  _186
REMARK   75  A    between atoms: _185  and  _188
REMARK   76  A    between atoms: _188  and  _189
REMARK   77  A    between atoms: _195  and  _197
REMARK   78  A    between atoms: _197  and  _198
REMARK   79  A    between atoms: _197  and  _200
REMARK   80  A    between atoms: _200  and  _201
REMARK   81  A    between atoms: _206  and  _207
REMARK   82  A    between atoms: _209  and  _211
REMARK   83  A    between atoms: _211  and  _212
REMARK   84  A    between atoms: _214  and  _216
REMARK   85  A    between atoms: _216  and  _217
REMARK   86  A    between atoms: _219  and  _221
REMARK   87  A    between atoms: _221  and  _222
REMARK   88  A    between atoms: _221  and  _224
REMARK   89  A    between atoms: _224  and  _225
REMARK   90  A    between atoms: _235  and  _237
REMARK   91  A    between atoms: _237  and  _238
REMARK   92  A    between atoms: _237  and  _240
REMARK   93  A    between atoms: _240  and  _241
REMARK   94  A    between atoms: _246  and  _248
REMARK   95  A    between atoms: _248  and  _249
REMARK   96  A    between atoms: _248  and  _251
REMARK   97  A    between atoms: _251  and  _252
REMARK   98  A    between atoms: _257  and  _258
REMARK   99  A    between atoms: _260  and  _262
REMARK  100  A    between atoms: _262  and  _263
REMARK  101  A    between atoms: _262  and  _265
REMARK  102  A    between atoms: _265  and  _266
REMARK  103  A    between atoms: _271  and  _272
REMARK  104  A    between atoms: _274  and  _276
REMARK  105  A    between atoms: _276  and  _277
REMARK  106  A    between atoms: _276  and  _279
REMARK  107  A    between atoms: _279  and  _280
REMARK  108  A    between atoms: _280  and  _281
REMARK  109  A    between atoms: _281  and  _282
REMARK  110  A    between atoms: _291  and  _293
REMARK  111  A    between atoms: _293  and  _294
REMARK  112  A    between atoms: _293  and  _296
REMARK  113  A    between atoms: _296  and  _297
REMARK  114  A    between atoms: _297  and  _298
REMARK  115  A    between atoms: _298  and  _299
REMARK  116  A    between atoms: _299  and  _300
REMARK  117  A    between atoms: _304  and  _306
REMARK  118  A    between atoms: _306  and  _307
REMARK  119  A    between atoms: _306  and  _309
REMARK  120  A    between atoms: _309  and  _310
REMARK  121  A    between atoms: _310  and  _311
REMARK  122  A    between atoms: _314  and  _316
REMARK  123  A    between atoms: _316  and  _317
REMARK  124  A    between atoms: _316  and  _319
REMARK  125  A    between atoms: _322  and  _324
REMARK  126  A    between atoms: _324  and  _325
REMARK  127  A    between atoms: _324  and  _327
REMARK  128  A    between atoms: _327  and  _328
REMARK  129  A    between atoms: _338  and  _340
REMARK  130  A    between atoms: _340  and  _341
REMARK  131  A    between atoms: _340  and  _343
REMARK  132  A    between atoms: _343  and  _344
REMARK  133  A    between atoms: _344  and  _345
REMARK                            x       y       z     vdW  Elec       q    Type
REMARK                         _______ _______ _______ _____ _____    ______ ____
ROOT
ATOM      1  O   HOH     1      22.612 -10.323  13.504  0.00  0.00    +0.000 OA
ENDROOT
TORSDOF 0
REMARK  Name = ../refined-set-2016/3ary/3ary_pocket.pdb
REMARK  133 active torsions:
REMARK  status: ('A' for Active; 'I' for Inactive)
REMARK    1  A    between atoms: _1  and  _3
REMARK    2  A    between atoms: _3  and  _4
REMARK    3  A    between atoms: _3  and  _6
REMARK    4  A    between atoms: _6  and  _7
REMARK    5  A    between atoms: _17  and  _19
REMARK    6  A    between atoms: _19  and  _20
REMARK    7  A    between atoms: _19  and  _22
REMARK    8  A    between atoms: _22  and  _23
REMARK    9  A    between atoms: _29  and  _31
REMARK   10  A    between atoms: _31  and  _32
REMARK   11  A    between atoms: _31  and  _34
REMARK   12  A    between atoms: _34  and  _35
REMARK   13  A    between atoms: _37  and  _39
REMARK   14  A    between atoms: _39  and  _40
REMARK   15  A    between atoms: _39  and  _42
REMARK   16  A    between atoms: _45  and  _47
REMARK   17  A    between atoms: _47  and  _48
REMARK   18  A    between atoms: _47  and  _50
REMARK   19  A    between atoms: _50  and  _51
REMARK   20  A    between atoms: _53  and  _55
REMARK   21  A    between atoms: _55  and  _56
REMARK   22  A    between atoms: _55  and  _58
REMARK   23  A    between atoms: _61  and  _63
REMARK   24  A    between atoms: _63  and  _64
REMARK   25  A    between atoms: _66  and  _68
REMARK   26  A    between atoms: _68  and  _69
REMARK   27  A    between atoms: _68  and  _71
REMARK   28  A    between atoms: _71  and  _72
REMARK   29  A    between atoms: _82  and  _84
REMARK   30  A    between atoms: _84  and  _85
REMARK   31  A    between atoms: _84  and  _87
REMARK   32  A    between atoms: _87  and  _88
REMARK   33  A    between atoms: _91  and  _93
REMARK   34  A    between atoms: _93  and  _94
REMARK   35  A    between atoms: _93  and  _96
REMARK   36  A    between atoms: _96  and  _97
REMARK   37  A    between atoms: _100  and  _102
REMARK   38  A    between atoms: _102  and  _103
REMARK   39  A    between atoms: _102  and  _105
REMARK   40  A    between atoms: _105  and  _106
REMARK   41  A    between atoms: _106  and  _107
REMARK   42  A    between atoms: _110  and  _112
REMARK   43  A    between atoms: _112  and  _113
REMARK   44  A    between atoms: _112  and  _115
REMARK   45  A    between atoms: _115  and  _116
REMARK   46  A    between atoms: _122  and  _124
REMARK   47  A    between atoms: _124  and  _125
REMARK   48  A    between atoms: _127  and  _129
REMARK   49  A    between atoms: _129  and  _130
REMARK   50  A    between atoms: _132  and  _134
REMARK   51  A    between atoms: _134  and  _135
REMARK   52  A    between atoms: _138  and  _140
REMARK   53  A    between atoms: _140  and  _141
REMARK   54  A    between atoms: _140  and  _143
REMARK   55  A    between atoms: _143  and  _144
REMARK   56  A    between atoms: _144  and  _145
REMARK   57  A    between atoms: _145  and  _146
REMARK   58  A    between atoms: _146  and  _147
REMARK   59  A    between atoms: _151  and  _153
REMARK   60  A    between atoms: _153  and  _154
REMARK   61  A    between atoms: _153  and  _156
REMARK   62  A    between atoms: _156  and  _157
REMARK   63  A    between atoms: _157  and  _158
REMARK   64  A    between atoms: _160  and  _162
REMARK   65  A    between atoms: _162  and  _163
REMARK   66  A    between atoms: _162  and  _165
REMARK   67  A    between atoms: _165  and  _166
REMARK   68  A    between atoms: _171  and  _172
REMARK   69  A    between atoms: _174  and  _176
REMARK   70  A    between atoms: _176  and  _177
REMARK   71  A    between atoms: _176  and  _179
REMARK   72  A    between atoms: _179  and  _180
REMARK   73  A    between atoms: _183  and  _185
REMARK   74  A    between atoms: _185  and  _186
REMARK   75  A    between atoms: _185  and  _188
REMARK   76  A    between atoms: _188  and  _189
REMARK   77  A    between atoms: _195  and  _197
REMARK   78  A    between atoms: _197  and  _198
REMARK   79  A    between atoms: _197  and  _200
REMARK   80  A    between atoms: _200  and  _201
REMARK   81  A    between atoms: _206  and  _207
REMARK   82  A    between atoms: _209  and  _211
REMARK   83  A    between atoms: _211  and  _212
REMARK   84  A    between atoms: _214  and  _216
REMARK   85  A    between atoms: _216  and  _217
REMARK   86  A    between atoms: _219  and  _221
REMARK   87  A    between atoms: _221  and  _222
REMARK   88  A    between atoms: _221  and  _224
REMARK   89  A    between atoms: _224  and  _225
REMARK   90  A    between atoms: _235  and  _237
REMARK   91  A    between atoms: _237  and  _238
REMARK   92  A    between atoms: _237  and  _240
REMARK   93  A    between atoms: _240  and  _241
REMARK   94  A    between atoms: _246  and  _248
REMARK   95  A    between atoms: _248  and  _249
REMARK   96  A    between atoms: _248  and  _251
REMARK   97  A    between atoms: _251  and  _252
REMARK   98  A    between atoms: _257  and  _258
REMARK   99  A    between atoms: _260  and  _262
REMARK  100  A    between atoms: _262  and  _263
REMARK  101  A    between atoms: _262  and  _265
REMARK  102  A    between atoms: _265  and  _266
REMARK  103  A    between atoms: _271  and  _272
REMARK  104  A    between atoms: _274  and  _276
REMARK  105  A    between atoms: _276  and  _277
REMARK  106  A    between atoms: _276  and  _279
REMARK  107  A    between atoms: _279  and  _280
REMARK  108  A    between atoms: _280  and  _281
REMARK  109  A    between atoms: _281  and  _282
REMARK  110  A    between atoms: _291  and  _293
REMARK  111  A    between atoms: _293  and  _294
REMARK  112  A    between atoms: _293  and  _296
REMARK  113  A    between atoms: _296  and  _297
REMARK  114  A    between atoms: _297  and  _298
REMARK  115  A    between atoms: _298  and  _299
REMARK  116  A    between atoms: _299  and  _300
REMARK  117  A    between atoms: _304  and  _306
REMARK  118  A    between atoms: _306  and  _307
REMARK  119  A    between atoms: _306  and  _309
REMARK  120  A    between atoms: _309  and  _310
REMARK  121  A    between atoms: _310  and  _311
REMARK  122  A    between atoms: _314  and  _316
REMARK  123  A    between atoms: _316  and  _317
REMARK  124  A    between atoms: _316  and  _319
REMARK  125  A    between atoms: _322  and  _324
REMARK  126  A    between atoms: _324  and  _325
REMARK  127  A    between atoms: _324  and  _327
REMARK  128  A    between atoms: _327  and  _328
REMARK  129  A    between atoms: _338  and  _340
REMARK  130  A    between atoms: _340  and  _341
REMARK  131  A    between atoms: _340  and  _343
REMARK  132  A    between atoms: _343  and  _344
REMARK  133  A    between atoms: _344  and  _345
REMARK                            x       y       z     vdW  Elec       q    Type
REMARK                         _______ _______ _______ _____ _____    ______ ____
ROOT
ATOM      1  O   HOH     1      10.833  -7.312  19.603  0.00  0.00    +0.000 OA
ENDROOT
TORSDOF 0
REMARK  Name = ../refined-set-2016/3ary/3ary_pocket.pdb
REMARK  133 active torsions:
REMARK  status: ('A' for Active; 'I' for Inactive)
REMARK    1  A    between atoms: _1  and  _3
REMARK    2  A    between atoms: _3  and  _4
REMARK    3  A    between atoms: _3  and  _6
REMARK    4  A    between atoms: _6  and  _7
REMARK    5  A    between atoms: _17  and  _19
REMARK    6  A    between atoms: _19  and  _20
REMARK    7  A    between atoms: _19  and  _22
REMARK    8  A    between atoms: _22  and  _23
REMARK    9  A    between atoms: _29  and  _31
REMARK   10  A    between atoms: _31  and  _32
REMARK   11  A    between atoms: _31  and  _34
REMARK   12  A    between atoms: _34  and  _35
REMARK   13  A    between atoms: _37  and  _39
REMARK   14  A    between atoms: _39  and  _40
REMARK   15  A    between atoms: _39  and  _42
REMARK   16  A    between atoms: _45  and  _47
REMARK   17  A    between atoms: _47  and  _48
REMARK   18  A    between atoms: _47  and  _50
REMARK   19  A    between atoms: _50  and  _51
REMARK   20  A    between atoms: _53  and  _55
REMARK   21  A    between atoms: _55  and  _56
REMARK   22  A    between atoms: _55  and  _58
REMARK   23  A    between atoms: _61  and  _63
REMARK   24  A    between atoms: _63  and  _64
REMARK   25  A    between atoms: _66  and  _68
REMARK   26  A    between atoms: _68  and  _69
REMARK   27  A    between atoms: _68  and  _71
REMARK   28  A    between atoms: _71  and  _72
REMARK   29  A    between atoms: _82  and  _84
REMARK   30  A    between atoms: _84  and  _85
REMARK   31  A    between atoms: _84  and  _87
REMARK   32  A    between atoms: _87  and  _88
REMARK   33  A    between atoms: _91  and  _93
REMARK   34  A    between atoms: _93  and  _94
REMARK   35  A    between atoms: _93  and  _96
REMARK   36  A    between atoms: _96  and  _97
REMARK   37  A    between atoms: _100  and  _102
REMARK   38  A    between atoms: _102  and  _103
REMARK   39  A    between atoms: _102  and  _105
REMARK   40  A    between atoms: _105  and  _106
REMARK   41  A    between atoms: _106  and  _107
REMARK   42  A    between atoms: _110  and  _112
REMARK   43  A    between atoms: _112  and  _113
REMARK   44  A    between atoms: _112  and  _115
REMARK   45  A    between atoms: _115  and  _116
REMARK   46  A    between atoms: _122  and  _124
REMARK   47  A    between atoms: _124  and  _125
REMARK   48  A    between atoms: _127  and  _129
REMARK   49  A    between atoms: _129  and  _130
REMARK   50  A    between atoms: _132  and  _134
REMARK   51  A    between atoms: _134  and  _135
REMARK   52  A    between atoms: _138  and  _140
REMARK   53  A    between atoms: _140  and  _141
REMARK   54  A    between atoms: _140  and  _143
REMARK   55  A    between atoms: _143  and  _144
REMARK   56  A    between atoms: _144  and  _145
REMARK   57  A    between atoms: _145  and  _146
REMARK   58  A    between atoms: _146  and  _147
REMARK   59  A    between atoms: _151  and  _153
REMARK   60  A    between atoms: _153  and  _154
REMARK   61  A    between atoms: _153  and  _156
REMARK   62  A    between atoms: _156  and  _157
REMARK   63  A    between atoms: _157  and  _158
REMARK   64  A    between atoms: _160  and  _162
REMARK   65  A    between atoms: _162  and  _163
REMARK   66  A    between atoms: _162  and  _165
REMARK   67  A    between atoms: _165  and  _166
REMARK   68  A    between atoms: _171  and  _172
REMARK   69  A    between atoms: _174  and  _176
REMARK   70  A    between atoms: _176  and  _177
REMARK   71  A    between atoms: _176  and  _179
REMARK   72  A    between atoms: _179  and  _180
REMARK   73  A    between atoms: _183  and  _185
REMARK   74  A    between atoms: _185  and  _186
REMARK   75  A    between atoms: _185  and  _188
REMARK   76  A    between atoms: _188  and  _189
REMARK   77  A    between atoms: _195  and  _197
REMARK   78  A    between atoms: _197  and  _198
REMARK   79  A    between atoms: _197  and  _200
REMARK   80  A    between atoms: _200  and  _201
REMARK   81  A    between atoms: _206  and  _207
REMARK   82  A    between atoms: _209  and  _211
REMARK   83  A    between atoms: _211  and  _212
REMARK   84  A    between atoms: _214  and  _216
REMARK   85  A    between atoms: _216  and  _217
REMARK   86  A    between atoms: _219  and  _221
REMARK   87  A    between atoms: _221  and  _222
REMARK   88  A    between atoms: _221  and  _224
REMARK   89  A    between atoms: _224  and  _225
REMARK   90  A    between atoms: _235  and  _237
REMARK   91  A    between atoms: _237  and  _238
REMARK   92  A    between atoms: _237  and  _240
REMARK   93  A    between atoms: _240  and  _241
REMARK   94  A    between atoms: _246  and  _248
REMARK   95  A    between atoms: _248  and  _249
REMARK   96  A    between atoms: _248  and  _251
REMARK   97  A    between atoms: _251  and  _252
REMARK   98  A    between atoms: _257  and  _258
REMARK   99  A    between atoms: _260  and  _262
REMARK  100  A    between atoms: _262  and  _263
REMARK  101  A    between atoms: _262  and  _265
REMARK  102  A    between atoms: _265  and  _266
REMARK  103  A    between atoms: _271  and  _272
REMARK  104  A    between atoms: _274  and  _276
REMARK  105  A    between atoms: _276  and  _277
REMARK  106  A    between atoms: _276  and  _279
REMARK  107  A    between atoms: _279  and  _280
REMARK  108  A    between atoms: _280  and  _281
REMARK  109  A    between atoms: _281  and  _282
REMARK  110  A    between atoms: _291  and  _293
REMARK  111  A    between atoms: _293  and  _294
REMARK  112  A    between atoms: _293  and  _296
REMARK  113  A    between atoms: _296  and  _297
REMARK  114  A    between atoms: _297  and  _298
REMARK  115  A    between atoms: _298  and  _299
REMARK  116  A    between atoms: _299  and  _300
REMARK  117  A    between atoms: _304  and  _306
REMARK  118  A    between atoms: _306  and  _307
REMARK  119  A    between atoms: _306  and  _309
REMARK  120  A    between atoms: _309  and  _310
REMARK  121  A    between atoms: _310  and  _311
REMARK  122  A    between atoms: _314  and  _316
REMARK  123  A    between atoms: _316  and  _317
REMARK  124  A    between atoms: _316  and  _319
REMARK  125  A    between atoms: _322  and  _324
REMARK  126  A    between atoms: _324  and  _325
REMARK  127  A    between atoms: _324  and  _327
REMARK  128  A    between atoms: _327  and  _328
REMARK  129  A    between atoms: _338  and  _340
REMARK  130  A    between atoms: _340  and  _341
REMARK  131  A    between atoms: _340  and  _343
REMARK  132  A    between atoms: _343  and  _344
REMARK  133  A    between atoms: _344  and  _345
REMARK                            x       y       z     vdW  Elec       q    Type
REMARK                         _______ _______ _______ _____ _____    ______ ____
ROOT
ATOM      1  O   HOH     1      21.007 -12.138  16.729  0.00  0.00    +0.000 OA
ENDROOT
TORSDOF 0
REMARK  Name = ../refined-set-2016/3ary/3ary_pocket.pdb
REMARK  133 active torsions:
REMARK  status: ('A' for Active; 'I' for Inactive)
REMARK    1  A    between atoms: _1  and  _3
REMARK    2  A    between atoms: _3  and  _4
REMARK    3  A    between atoms: _3  and  _6
REMARK    4  A    between atoms: _6  and  _7
REMARK    5  A    between atoms: _17  and  _19
REMARK    6  A    between atoms: _19  and  _20
REMARK    7  A    between atoms: _19  and  _22
REMARK    8  A    between atoms: _22  and  _23
REMARK    9  A    between atoms: _29  and  _31
REMARK   10  A    between atoms: _31  and  _32
REMARK   11  A    between atoms: _31  and  _34
REMARK   12  A    between atoms: _34  and  _35
REMARK   13  A    between atoms: _37  and  _39
REMARK   14  A    between atoms: _39  and  _40
REMARK   15  A    between atoms: _39  and  _42
REMARK   16  A    between atoms: _45  and  _47
REMARK   17  A    between atoms: _47  and  _48
REMARK   18  A    between atoms: _47  and  _50
REMARK   19  A    between atoms: _50  and  _51
REMARK   20  A    between atoms: _53  and  _55
REMARK   21  A    between atoms: _55  and  _56
REMARK   22  A    between atoms: _55  and  _58
REMARK   23  A    between atoms: _61  and  _63
REMARK   24  A    between atoms: _63  and  _64
REMARK   25  A    between atoms: _66  and  _68
REMARK   26  A    between atoms: _68  and  _69
REMARK   27  A    between atoms: _68  and  _71
REMARK   28  A    between atoms: _71  and  _72
REMARK   29  A    between atoms: _82  and  _84
REMARK   30  A    between atoms: _84  and  _85
REMARK   31  A    between atoms: _84  and  _87
REMARK   32  A    between atoms: _87  and  _88
REMARK   33  A    between atoms: _91  and  _93
REMARK   34  A    between atoms: _93  and  _94
REMARK   35  A    between atoms: _93  and  _96
REMARK   36  A    between atoms: _96  and  _97
REMARK   37  A    between atoms: _100  and  _102
REMARK   38  A    between atoms: _102  and  _103
REMARK   39  A    between atoms: _102  and  _105
REMARK   40  A    between atoms: _105  and  _106
REMARK   41  A    between atoms: _106  and  _107
REMARK   42  A    between atoms: _110  and  _112
REMARK   43  A    between atoms: _112  and  _113
REMARK   44  A    between atoms: _112  and  _115
REMARK   45  A    between atoms: _115  and  _116
REMARK   46  A    between atoms: _122  and  _124
REMARK   47  A    between atoms: _124  and  _125
REMARK   48  A    between atoms: _127  and  _129
REMARK   49  A    between atoms: _129  and  _130
REMARK   50  A    between atoms: _132  and  _134
REMARK   51  A    between atoms: _134  and  _135
REMARK   52  A    between atoms: _138  and  _140
REMARK   53  A    between atoms: _140  and  _141
REMARK   54  A    between atoms: _140  and  _143
REMARK   55  A    between atoms: _143  and  _144
REMARK   56  A    between atoms: _144  and  _145
REMARK   57  A    between atoms: _145  and  _146
REMARK   58  A    between atoms: _146  and  _147
REMARK   59  A    between atoms: _151  and  _153
REMARK   60  A    between atoms: _153  and  _154
REMARK   61  A    between atoms: _153  and  _156
REMARK   62  A    between atoms: _156  and  _157
REMARK   63  A    between atoms: _157  and  _158
REMARK   64  A    between atoms: _160  and  _162
REMARK   65  A    between atoms: _162  and  _163
REMARK   66  A    between atoms: _162  and  _165
REMARK   67  A    between atoms: _165  and  _166
REMARK   68  A    between atoms: _171  and  _172
REMARK   69  A    between atoms: _174  and  _176
REMARK   70  A    between atoms: _176  and  _177
REMARK   71  A    between atoms: _176  and  _179
REMARK   72  A    between atoms: _179  and  _180
REMARK   73  A    between atoms: _183  and  _185
REMARK   74  A    between atoms: _185  and  _186
REMARK   75  A    between atoms: _185  and  _188
REMARK   76  A    between atoms: _188  and  _189
REMARK   77  A    between atoms: _195  and  _197
REMARK   78  A    between atoms: _197  and  _198
REMARK   79  A    between atoms: _197  and  _200
REMARK   80  A    between atoms: _200  and  _201
REMARK   81  A    between atoms: _206  and  _207
REMARK   82  A    between atoms: _209  and  _211
REMARK   83  A    between atoms: _211  and  _212
REMARK   84  A    between atoms: _214  and  _216
REMARK   85  A    between atoms: _216  and  _217
REMARK   86  A    between atoms: _219  and  _221
REMARK   87  A    between atoms: _221  and  _222
REMARK   88  A    between atoms: _221  and  _224
REMARK   89  A    between atoms: _224  and  _225
REMARK   90  A    between atoms: _235  and  _237
REMARK   91  A    between atoms: _237  and  _238
REMARK   92  A    between atoms: _237  and  _240
REMARK   93  A    between atoms: _240  and  _241
REMARK   94  A    between atoms: _246  and  _248
REMARK   95  A    between atoms: _248  and  _249
REMARK   96  A    between atoms: _248  and  _251
REMARK   97  A    between atoms: _251  and  _252
REMARK   98  A    between atoms: _257  and  _258
REMARK   99  A    between atoms: _260  and  _262
REMARK  100  A    between atoms: _262  and  _263
REMARK  101  A    between atoms: _262  and  _265
REMARK  102  A    between atoms: _265  and  _266
REMARK  103  A    between atoms: _271  and  _272
REMARK  104  A    between atoms: _274  and  _276
REMARK  105  A    between atoms: _276  and  _277
REMARK  106  A    between atoms: _276  and  _279
REMARK  107  A    between atoms: _279  and  _280
REMARK  108  A    between atoms: _280  and  _281
REMARK  109  A    between atoms: _281  and  _282
REMARK  110  A    between atoms: _291  and  _293
REMARK  111  A    between atoms: _293  and  _294
REMARK  112  A    between atoms: _293  and  _296
REMARK  113  A    between atoms: _296  and  _297
REMARK  114  A    between atoms: _297  and  _298
REMARK  115  A    between atoms: _298  and  _299
REMARK  116  A    between atoms: _299  and  _300
REMARK  117  A    between atoms: _304  and  _306
REMARK  118  A    between atoms: _306  and  _307
REMARK  119  A    between atoms: _306  and  _309
REMARK  120  A    between atoms: _309  and  _310
REMARK  121  A    between atoms: _310  and  _311
REMARK  122  A    between atoms: _314  and  _316
REMARK  123  A    between atoms: _316  and  _317
REMARK  124  A    between atoms: _316  and  _319
REMARK  125  A    between atoms: _322  and  _324
REMARK  126  A    between atoms: _324  and  _325
REMARK  127  A    between atoms: _324  and  _327
REMARK  128  A    between atoms: _327  and  _328
REMARK  129  A    between atoms: _338  and  _340
REMARK  130  A    between atoms: _340  and  _341
REMARK  131  A    between atoms: _340  and  _343
REMARK  132  A    between atoms: _343  and  _344
REMARK  133  A    between atoms: _344  and  _345
REMARK                            x       y       z     vdW  Elec       q    Type
REMARK                         _______ _______ _______ _____ _____    ______ ____
ROOT
ATOM      1  O   HOH     1      12.451  -0.711  24.924  0.00  0.00    +0.000 OA
ENDROOT
TORSDOF 0
REMARK  Name = ../refined-set-2016/3ary/3ary_pocket.pdb
REMARK  133 active torsions:
REMARK  status: ('A' for Active; 'I' for Inactive)
REMARK    1  A    between atoms: _1  and  _3
REMARK    2  A    between atoms: _3  and  _4
REMARK    3  A    between atoms: _3  and  _6
REMARK    4  A    between atoms: _6  and  _7
REMARK    5  A    between atoms: _17  and  _19
REMARK    6  A    between atoms: _19  and  _20
REMARK    7  A    between atoms: _19  and  _22
REMARK    8  A    between atoms: _22  and  _23
REMARK    9  A    between atoms: _29  and  _31
REMARK   10  A    between atoms: _31  and  _32
REMARK   11  A    between atoms: _31  and  _34
REMARK   12  A    between atoms: _34  and  _35
REMARK   13  A    between atoms: _37  and  _39
REMARK   14  A    between atoms: _39  and  _40
REMARK   15  A    between atoms: _39  and  _42
REMARK   16  A    between atoms: _45  and  _47
REMARK   17  A    between atoms: _47  and  _48
REMARK   18  A    between atoms: _47  and  _50
REMARK   19  A    between atoms: _50  and  _51
REMARK   20  A    between atoms: _53  and  _55
REMARK   21  A    between atoms: _55  and  _56
REMARK   22  A    between atoms: _55  and  _58
REMARK   23  A    between atoms: _61  and  _63
REMARK   24  A    between atoms: _63  and  _64
REMARK   25  A    between atoms: _66  and  _68
REMARK   26  A    between atoms: _68  and  _69
REMARK   27  A    between atoms: _68  and  _71
REMARK   28  A    between atoms: _71  and  _72
REMARK   29  A    between atoms: _82  and  _84
REMARK   30  A    between atoms: _84  and  _85
REMARK   31  A    between atoms: _84  and  _87
REMARK   32  A    between atoms: _87  and  _88
REMARK   33  A    between atoms: _91  and  _93
REMARK   34  A    between atoms: _93  and  _94
REMARK   35  A    between atoms: _93  and  _96
REMARK   36  A    between atoms: _96  and  _97
REMARK   37  A    between atoms: _100  and  _102
REMARK   38  A    between atoms: _102  and  _103
REMARK   39  A    between atoms: _102  and  _105
REMARK   40  A    between atoms: _105  and  _106
REMARK   41  A    between atoms: _106  and  _107
REMARK   42  A    between atoms: _110  and  _112
REMARK   43  A    between atoms: _112  and  _113
REMARK   44  A    between atoms: _112  and  _115
REMARK   45  A    between atoms: _115  and  _116
REMARK   46  A    between atoms: _122  and  _124
REMARK   47  A    between atoms: _124  and  _125
REMARK   48  A    between atoms: _127  and  _129
REMARK   49  A    between atoms: _129  and  _130
REMARK   50  A    between atoms: _132  and  _134
REMARK   51  A    between atoms: _134  and  _135
REMARK   52  A    between atoms: _138  and  _140
REMARK   53  A    between atoms: _140  and  _141
REMARK   54  A    between atoms: _140  and  _143
REMARK   55  A    between atoms: _143  and  _144
REMARK   56  A    between atoms: _144  and  _145
REMARK   57  A    between atoms: _145  and  _146
REMARK   58  A    between atoms: _146  and  _147
REMARK   59  A    between atoms: _151  and  _153
REMARK   60  A    between atoms: _153  and  _154
REMARK   61  A    between atoms: _153  and  _156
REMARK   62  A    between atoms: _156  and  _157
REMARK   63  A    between atoms: _157  and  _158
REMARK   64  A    between atoms: _160  and  _162
REMARK   65  A    between atoms: _162  and  _163
REMARK   66  A    between atoms: _162  and  _165
REMARK   67  A    between atoms: _165  and  _166
REMARK   68  A    between atoms: _171  and  _172
REMARK   69  A    between atoms: _174  and  _176
REMARK   70  A    between atoms: _176  and  _177
REMARK   71  A    between atoms: _176  and  _179
REMARK   72  A    between atoms: _179  and  _180
REMARK   73  A    between atoms: _183  and  _185
REMARK   74  A    between atoms: _185  and  _186
REMARK   75  A    between atoms: _185  and  _188
REMARK   76  A    between atoms: _188  and  _189
REMARK   77  A    between atoms: _195  and  _197
REMARK   78  A    between atoms: _197  and  _198
REMARK   79  A    between atoms: _197  and  _200
REMARK   80  A    between atoms: _200  and  _201
REMARK   81  A    between atoms: _206  and  _207
REMARK   82  A    between atoms: _209  and  _211
REMARK   83  A    between atoms: _211  and  _212
REMARK   84  A    between atoms: _214  and  _216
REMARK   85  A    between atoms: _216  and  _217
REMARK   86  A    between atoms: _219  and  _221
REMARK   87  A    between atoms: _221  and  _222
REMARK   88  A    between atoms: _221  and  _224
REMARK   89  A    between atoms: _224  and  _225
REMARK   90  A    between atoms: _235  and  _237
REMARK   91  A    between atoms: _237  and  _238
REMARK   92  A    between atoms: _237  and  _240
REMARK   93  A    between atoms: _240  and  _241
REMARK   94  A    between atoms: _246  and  _248
REMARK   95  A    between atoms: _248  and  _249
REMARK   96  A    between atoms: _248  and  _251
REMARK   97  A    between atoms: _251  and  _252
REMARK   98  A    between atoms: _257  and  _258
REMARK   99  A    between atoms: _260  and  _262
REMARK  100  A    between atoms: _262  and  _263
REMARK  101  A    between atoms: _262  and  _265
REMARK  102  A    between atoms: _265  and  _266
REMARK  103  A    between atoms: _271  and  _272
REMARK  104  A    between atoms: _274  and  _276
REMARK  105  A    between atoms: _276  and  _277
REMARK  106  A    between atoms: _276  and  _279
REMARK  107  A    between atoms: _279  and  _280
REMARK  108  A    between atoms: _280  and  _281
REMARK  109  A    between atoms: _281  and  _282
REMARK  110  A    between atoms: _291  and  _293
REMARK  111  A    between atoms: _293  and  _294
REMARK  112  A    between atoms: _293  and  _296
REMARK  113  A    between atoms: _296  and  _297
REMARK  114  A    between atoms: _297  and  _298
REMARK  115  A    between atoms: _298  and  _299
REMARK  116  A    between atoms: _299  and  _300
REMARK  117  A    between atoms: _304  and  _306
REMARK  118  A    between atoms: _306  and  _307
REMARK  119  A    between atoms: _306  and  _309
REMARK  120  A    between atoms: _309  and  _310
REMARK  121  A    between atoms: _310  and  _311
REMARK  122  A    between atoms: _314  and  _316
REMARK  123  A    between atoms: _316  and  _317
REMARK  124  A    between atoms: _316  and  _319
REMARK  125  A    between atoms: _322  and  _324
REMARK  126  A    between atoms: _324  and  _325
REMARK  127  A    between atoms: _324  and  _327
REMARK  128  A    between atoms: _327  and  _328
REMARK  129  A    between atoms: _338  and  _340
REMARK  130  A    between atoms: _340  and  _341
REMARK  131  A    between atoms: _340  and  _343
REMARK  132  A    between atoms: _343  and  _344
REMARK  133  A    between atoms: _344  and  _345
REMARK                            x       y       z     vdW  Elec       q    Type
REMARK                         _______ _______ _______ _____ _____    ______ ____
ROOT
ATOM      1  O   HOH     1       9.771  -9.218  20.652  0.00  0.00    +0.000 OA
ENDROOT
TORSDOF 0
REMARK  Name = ../refined-set-2016/3ary/3ary_pocket.pdb
REMARK  133 active torsions:
REMARK  status: ('A' for Active; 'I' for Inactive)
REMARK    1  A    between atoms: _1  and  _3
REMARK    2  A    between atoms: _3  and  _4
REMARK    3  A    between atoms: _3  and  _6
REMARK    4  A    between atoms: _6  and  _7
REMARK    5  A    between atoms: _17  and  _19
REMARK    6  A    between atoms: _19  and  _20
REMARK    7  A    between atoms: _19  and  _22
REMARK    8  A    between atoms: _22  and  _23
REMARK    9  A    between atoms: _29  and  _31
REMARK   10  A    between atoms: _31  and  _32
REMARK   11  A    between atoms: _31  and  _34
REMARK   12  A    between atoms: _34  and  _35
REMARK   13  A    between atoms: _37  and  _39
REMARK   14  A    between atoms: _39  and  _40
REMARK   15  A    between atoms: _39  and  _42
REMARK   16  A    between atoms: _45  and  _47
REMARK   17  A    between atoms: _47  and  _48
REMARK   18  A    between atoms: _47  and  _50
REMARK   19  A    between atoms: _50  and  _51
REMARK   20  A    between atoms: _53  and  _55
REMARK   21  A    between atoms: _55  and  _56
REMARK   22  A    between atoms: _55  and  _58
REMARK   23  A    between atoms: _61  and  _63
REMARK   24  A    between atoms: _63  and  _64
REMARK   25  A    between atoms: _66  and  _68
REMARK   26  A    between atoms: _68  and  _69
REMARK   27  A    between atoms: _68  and  _71
REMARK   28  A    between atoms: _71  and  _72
REMARK   29  A    between atoms: _82  and  _84
REMARK   30  A    between atoms: _84  and  _85
REMARK   31  A    between atoms: _84  and  _87
REMARK   32  A    between atoms: _87  and  _88
REMARK   33  A    between atoms: _91  and  _93
REMARK   34  A    between atoms: _93  and  _94
REMARK   35  A    between atoms: _93  and  _96
REMARK   36  A    between atoms: _96  and  _97
REMARK   37  A    between atoms: _100  and  _102
REMARK   38  A    between atoms: _102  and  _103
REMARK   39  A    between atoms: _102  and  _105
REMARK   40  A    between atoms: _105  and  _106
REMARK   41  A    between atoms: _106  and  _107
REMARK   42  A    between atoms: _110  and  _112
REMARK   43  A    between atoms: _112  and  _113
REMARK   44  A    between atoms: _112  and  _115
REMARK   45  A    between atoms: _115  and  _116
REMARK   46  A    between atoms: _122  and  _124
REMARK   47  A    between atoms: _124  and  _125
REMARK   48  A    between atoms: _127  and  _129
REMARK   49  A    between atoms: _129  and  _130
REMARK   50  A    between atoms: _132  and  _134
REMARK   51  A    between atoms: _134  and  _135
REMARK   52  A    between atoms: _138  and  _140
REMARK   53  A    between atoms: _140  and  _141
REMARK   54  A    between atoms: _140  and  _143
REMARK   55  A    between atoms: _143  and  _144
REMARK   56  A    between atoms: _144  and  _145
REMARK   57  A    between atoms: _145  and  _146
REMARK   58  A    between atoms: _146  and  _147
REMARK   59  A    between atoms: _151  and  _153
REMARK   60  A    between atoms: _153  and  _154
REMARK   61  A    between atoms: _153  and  _156
REMARK   62  A    between atoms: _156  and  _157
REMARK   63  A    between atoms: _157  and  _158
REMARK   64  A    between atoms: _160  and  _162
REMARK   65  A    between atoms: _162  and  _163
REMARK   66  A    between atoms: _162  and  _165
REMARK   67  A    between atoms: _165  and  _166
REMARK   68  A    between atoms: _171  and  _172
REMARK   69  A    between atoms: _174  and  _176
REMARK   70  A    between atoms: _176  and  _177
REMARK   71  A    between atoms: _176  and  _179
REMARK   72  A    between atoms: _179  and  _180
REMARK   73  A    between atoms: _183  and  _185
REMARK   74  A    between atoms: _185  and  _186
REMARK   75  A    between atoms: _185  and  _188
REMARK   76  A    between atoms: _188  and  _189
REMARK   77  A    between atoms: _195  and  _197
REMARK   78  A    between atoms: _197  and  _198
REMARK   79  A    between atoms: _197  and  _200
REMARK   80  A    between atoms: _200  and  _201
REMARK   81  A    between atoms: _206  and  _207
REMARK   82  A    between atoms: _209  and  _211
REMARK   83  A    between atoms: _211  and  _212
REMARK   84  A    between atoms: _214  and  _216
REMARK   85  A    between atoms: _216  and  _217
REMARK   86  A    between atoms: _219  and  _221
REMARK   87  A    between atoms: _221  and  _222
REMARK   88  A    between atoms: _221  and  _224
REMARK   89  A    between atoms: _224  and  _225
REMARK   90  A    between atoms: _235  and  _237
REMARK   91  A    between atoms: _237  and  _238
REMARK   92  A    between atoms: _237  and  _240
REMARK   93  A    between atoms: _240  and  _241
REMARK   94  A    between atoms: _246  and  _248
REMARK   95  A    between atoms: _248  and  _249
REMARK   96  A    between atoms: _248  and  _251
REMARK   97  A    between atoms: _251  and  _252
REMARK   98  A    between atoms: _257  and  _258
REMARK   99  A    between atoms: _260  and  _262
REMARK  100  A    between atoms: _262  and  _263
REMARK  101  A    between atoms: _262  and  _265
REMARK  102  A    between atoms: _265  and  _266
REMARK  103  A    between atoms: _271  and  _272
REMARK  104  A    between atoms: _274  and  _276
REMARK  105  A    between atoms: _276  and  _277
REMARK  106  A    between atoms: _276  and  _279
REMARK  107  A    between atoms: _279  and  _280
REMARK  108  A    between atoms: _280  and  _281
REMARK  109  A    between atoms: _281  and  _282
REMARK  110  A    between atoms: _291  and  _293
REMARK  111  A    between atoms: _293  and  _294
REMARK  112  A    between atoms: _293  and  _296
REMARK  113  A    between atoms: _296  and  _297
REMARK  114  A    between atoms: _297  and  _298
REMARK  115  A    between atoms: _298  and  _299
REMARK  116  A    between atoms: _299  and  _300
REMARK  117  A    between atoms: _304  and  _306
REMARK  118  A    between atoms: _306  and  _307
REMARK  119  A    between atoms: _306  and  _309
REMARK  120  A    between atoms: _309  and  _310
REMARK  121  A    between atoms: _310  and  _311
REMARK  122  A    between atoms: _314  and  _316
REMARK  123  A    between atoms: _316  and  _317
REMARK  124  A    between atoms: _316  and  _319
REMARK  125  A    between atoms: _322  and  _324
REMARK  126  A    between atoms: _324  and  _325
REMARK  127  A    between atoms: _324  and  _327
REMARK  128  A    between atoms: _327  and  _328
REMARK  129  A    between atoms: _338  and  _340
REMARK  130  A    between atoms: _340  and  _341
REMARK  131  A    between atoms: _340  and  _343
REMARK  132  A    between atoms: _343  and  _344
REMARK  133  A    between atoms: _344  and  _345
REMARK                            x       y       z     vdW  Elec       q    Type
REMARK                         _______ _______ _______ _____ _____    ______ ____
ROOT
ATOM      1  O   HOH     1       9.858  -0.258  25.006  0.00  0.00    +0.000 OA
ENDROOT
TORSDOF 0
REMARK  Name = ../refined-set-2016/3ary/3ary_pocket.pdb
REMARK  133 active torsions:
REMARK  status: ('A' for Active; 'I' for Inactive)
REMARK    1  A    between atoms: _1  and  _3
REMARK    2  A    between atoms: _3  and  _4
REMARK    3  A    between atoms: _3  and  _6
REMARK    4  A    between atoms: _6  and  _7
REMARK    5  A    between atoms: _17  and  _19
REMARK    6  A    between atoms: _19  and  _20
REMARK    7  A    between atoms: _19  and  _22
REMARK    8  A    between atoms: _22  and  _23
REMARK    9  A    between atoms: _29  and  _31
REMARK   10  A    between atoms: _31  and  _32
REMARK   11  A    between atoms: _31  and  _34
REMARK   12  A    between atoms: _34  and  _35
REMARK   13  A    between atoms: _37  and  _39
REMARK   14  A    between atoms: _39  and  _40
REMARK   15  A    between atoms: _39  and  _42
REMARK   16  A    between atoms: _45  and  _47
REMARK   17  A    between atoms: _47  and  _48
REMARK   18  A    between atoms: _47  and  _50
REMARK   19  A    between atoms: _50  and  _51
REMARK   20  A    between atoms: _53  and  _55
REMARK   21  A    between atoms: _55  and  _56
REMARK   22  A    between atoms: _55  and  _58
REMARK   23  A    between atoms: _61  and  _63
REMARK   24  A    between atoms: _63  and  _64
REMARK   25  A    between atoms: _66  and  _68
REMARK   26  A    between atoms: _68  and  _69
REMARK   27  A    between atoms: _68  and  _71
REMARK   28  A    between atoms: _71  and  _72
REMARK   29  A    between atoms: _82  and  _84
REMARK   30  A    between atoms: _84  and  _85
REMARK   31  A    between atoms: _84  and  _87
REMARK   32  A    between atoms: _87  and  _88
REMARK   33  A    between atoms: _91  and  _93
REMARK   34  A    between atoms: _93  and  _94
REMARK   35  A    between atoms: _93  and  _96
REMARK   36  A    between atoms: _96  and  _97
REMARK   37  A    between atoms: _100  and  _102
REMARK   38  A    between atoms: _102  and  _103
REMARK   39  A    between atoms: _102  and  _105
REMARK   40  A    between atoms: _105  and  _106
REMARK   41  A    between atoms: _106  and  _107
REMARK   42  A    between atoms: _110  and  _112
REMARK   43  A    between atoms: _112  and  _113
REMARK   44  A    between atoms: _112  and  _115
REMARK   45  A    between atoms: _115  and  _116
REMARK   46  A    between atoms: _122  and  _124
REMARK   47  A    between atoms: _124  and  _125
REMARK   48  A    between atoms: _127  and  _129
REMARK   49  A    between atoms: _129  and  _130
REMARK   50  A    between atoms: _132  and  _134
REMARK   51  A    between atoms: _134  and  _135
REMARK   52  A    between atoms: _138  and  _140
REMARK   53  A    between atoms: _140  and  _141
REMARK   54  A    between atoms: _140  and  _143
REMARK   55  A    between atoms: _143  and  _144
REMARK   56  A    between atoms: _144  and  _145
REMARK   57  A    between atoms: _145  and  _146
REMARK   58  A    between atoms: _146  and  _147
REMARK   59  A    between atoms: _151  and  _153
REMARK   60  A    between atoms: _153  and  _154
REMARK   61  A    between atoms: _153  and  _156
REMARK   62  A    between atoms: _156  and  _157
REMARK   63  A    between atoms: _157  and  _158
REMARK   64  A    between atoms: _160  and  _162
REMARK   65  A    between atoms: _162  and  _163
REMARK   66  A    between atoms: _162  and  _165
REMARK   67  A    between atoms: _165  and  _166
REMARK   68  A    between atoms: _171  and  _172
REMARK   69  A    between atoms: _174  and  _176
REMARK   70  A    between atoms: _176  and  _177
REMARK   71  A    between atoms: _176  and  _179
REMARK   72  A    between atoms: _179  and  _180
REMARK   73  A    between atoms: _183  and  _185
REMARK   74  A    between atoms: _185  and  _186
REMARK   75  A    between atoms: _185  and  _188
REMARK   76  A    between atoms: _188  and  _189
REMARK   77  A    between atoms: _195  and  _197
REMARK   78  A    between atoms: _197  and  _198
REMARK   79  A    between atoms: _197  and  _200
REMARK   80  A    between atoms: _200  and  _201
REMARK   81  A    between atoms: _206  and  _207
REMARK   82  A    between atoms: _209  and  _211
REMARK   83  A    between atoms: _211  and  _212
REMARK   84  A    between atoms: _214  and  _216
REMARK   85  A    between atoms: _216  and  _217
REMARK   86  A    between atoms: _219  and  _221
REMARK   87  A    between atoms: _221  and  _222
REMARK   88  A    between atoms: _221  and  _224
REMARK   89  A    between atoms: _224  and  _225
REMARK   90  A    between atoms: _235  and  _237
REMARK   91  A    between atoms: _237  and  _238
REMARK   92  A    between atoms: _237  and  _240
REMARK   93  A    between atoms: _240  and  _241
REMARK   94  A    between atoms: _246  and  _248
REMARK   95  A    between atoms: _248  and  _249
REMARK   96  A    between atoms: _248  and  _251
REMARK   97  A    between atoms: _251  and  _252
REMARK   98  A    between atoms: _257  and  _258
REMARK   99  A    between atoms: _260  and  _262
REMARK  100  A    between atoms: _262  and  _263
REMARK  101  A    between atoms: _262  and  _265
REMARK  102  A    between atoms: _265  and  _266
REMARK  103  A    between atoms: _271  and  _272
REMARK  104  A    between atoms: _274  and  _276
REMARK  105  A    between atoms: _276  and  _277
REMARK  106  A    between atoms: _276  and  _279
REMARK  107  A    between atoms: _279  and  _280
REMARK  108  A    between atoms: _280  and  _281
REMARK  109  A    between atoms: _281  and  _282
REMARK  110  A    between atoms: _291  and  _293
REMARK  111  A    between atoms: _293  and  _294
REMARK  112  A    between atoms: _293  and  _296
REMARK  113  A    between atoms: _296  and  _297
REMARK  114  A    between atoms: _297  and  _298
REMARK  115  A    between atoms: _298  and  _299
REMARK  116  A    between atoms: _299  and  _300
REMARK  117  A    between atoms: _304  and  _306
REMARK  118  A    between atoms: _306  and  _307
REMARK  119  A    between atoms: _306  and  _309
REMARK  120  A    between atoms: _309  and  _310
REMARK  121  A    between atoms: _310  and  _311
REMARK  122  A    between atoms: _314  and  _316
REMARK  123  A    between atoms: _316  and  _317
REMARK  124  A    between atoms: _316  and  _319
REMARK  125  A    between atoms: _322  and  _324
REMARK  126  A    between atoms: _324  and  _325
REMARK  127  A    between atoms: _324  and  _327
REMARK  128  A    between atoms: _327  and  _328
REMARK  129  A    between atoms: _338  and  _340
REMARK  130  A    between atoms: _340  and  _341
REMARK  131  A    between atoms: _340  and  _343
REMARK  132  A    between atoms: _343  and  _344
REMARK  133  A    between atoms: _344  and  _345
REMARK                            x       y       z     vdW  Elec       q    Type
REMARK                         _______ _______ _______ _____ _____    ______ ____
ROOT
ATOM      1  O   HOH     1      26.866 -10.586  18.863  0.00  0.00    +0.000 OA
ENDROOT
TORSDOF 0
REMARK  Name = ../refined-set-2016/3ary/3ary_pocket.pdb
REMARK  133 active torsions:
REMARK  status: ('A' for Active; 'I' for Inactive)
REMARK    1  A    between atoms: _1  and  _3
REMARK    2  A    between atoms: _3  and  _4
REMARK    3  A    between atoms: _3  and  _6
REMARK    4  A    between atoms: _6  and  _7
REMARK    5  A    between atoms: _17  and  _19
REMARK    6  A    between atoms: _19  and  _20
REMARK    7  A    between atoms: _19  and  _22
REMARK    8  A    between atoms: _22  and  _23
REMARK    9  A    between atoms: _29  and  _31
REMARK   10  A    between atoms: _31  and  _32
REMARK   11  A    between atoms: _31  and  _34
REMARK   12  A    between atoms: _34  and  _35
REMARK   13  A    between atoms: _37  and  _39
REMARK   14  A    between atoms: _39  and  _40
REMARK   15  A    between atoms: _39  and  _42
REMARK   16  A    between atoms: _45  and  _47
REMARK   17  A    between atoms: _47  and  _48
REMARK   18  A    between atoms: _47  and  _50
REMARK   19  A    between atoms: _50  and  _51
REMARK   20  A    between atoms: _53  and  _55
REMARK   21  A    between atoms: _55  and  _56
REMARK   22  A    between atoms: _55  and  _58
REMARK   23  A    between atoms: _61  and  _63
REMARK   24  A    between atoms: _63  and  _64
REMARK   25  A    between atoms: _66  and  _68
REMARK   26  A    between atoms: _68  and  _69
REMARK   27  A    between atoms: _68  and  _71
REMARK   28  A    between atoms: _71  and  _72
REMARK   29  A    between atoms: _82  and  _84
REMARK   30  A    between atoms: _84  and  _85
REMARK   31  A    between atoms: _84  and  _87
REMARK   32  A    between atoms: _87  and  _88
REMARK   33  A    between atoms: _91  and  _93
REMARK   34  A    between atoms: _93  and  _94
REMARK   35  A    between atoms: _93  and  _96
REMARK   36  A    between atoms: _96  and  _97
REMARK   37  A    between atoms: _100  and  _102
REMARK   38  A    between atoms: _102  and  _103
REMARK   39  A    between atoms: _102  and  _105
REMARK   40  A    between atoms: _105  and  _106
REMARK   41  A    between atoms: _106  and  _107
REMARK   42  A    between atoms: _110  and  _112
REMARK   43  A    between atoms: _112  and  _113
REMARK   44  A    between atoms: _112  and  _115
REMARK   45  A    between atoms: _115  and  _116
REMARK   46  A    between atoms: _122  and  _124
REMARK   47  A    between atoms: _124  and  _125
REMARK   48  A    between atoms: _127  and  _129
REMARK   49  A    between atoms: _129  and  _130
REMARK   50  A    between atoms: _132  and  _134
REMARK   51  A    between atoms: _134  and  _135
REMARK   52  A    between atoms: _138  and  _140
REMARK   53  A    between atoms: _140  and  _141
REMARK   54  A    between atoms: _140  and  _143
REMARK   55  A    between atoms: _143  and  _144
REMARK   56  A    between atoms: _144  and  _145
REMARK   57  A    between atoms: _145  and  _146
REMARK   58  A    between atoms: _146  and  _147
REMARK   59  A    between atoms: _151  and  _153
REMARK   60  A    between atoms: _153  and  _154
REMARK   61  A    between atoms: _153  and  _156
REMARK   62  A    between atoms: _156  and  _157
REMARK   63  A    between atoms: _157  and  _158
REMARK   64  A    between atoms: _160  and  _162
REMARK   65  A    between atoms: _162  and  _163
REMARK   66  A    between atoms: _162  and  _165
REMARK   67  A    between atoms: _165  and  _166
REMARK   68  A    between atoms: _171  and  _172
REMARK   69  A    between atoms: _174  and  _176
REMARK   70  A    between atoms: _176  and  _177
REMARK   71  A    between atoms: _176  and  _179
REMARK   72  A    between atoms: _179  and  _180
REMARK   73  A    between atoms: _183  and  _185
REMARK   74  A    between atoms: _185  and  _186
REMARK   75  A    between atoms: _185  and  _188
REMARK   76  A    between atoms: _188  and  _189
REMARK   77  A    between atoms: _195  and  _197
REMARK   78  A    between atoms: _197  and  _198
REMARK   79  A    between atoms: _197  and  _200
REMARK   80  A    between atoms: _200  and  _201
REMARK   81  A    between atoms: _206  and  _207
REMARK   82  A    between atoms: _209  and  _211
REMARK   83  A    between atoms: _211  and  _212
REMARK   84  A    between atoms: _214  and  _216
REMARK   85  A    between atoms: _216  and  _217
REMARK   86  A    between atoms: _219  and  _221
REMARK   87  A    between atoms: _221  and  _222
REMARK   88  A    between atoms: _221  and  _224
REMARK   89  A    between atoms: _224  and  _225
REMARK   90  A    between atoms: _235  and  _237
REMARK   91  A    between atoms: _237  and  _238
REMARK   92  A    between atoms: _237  and  _240
REMARK   93  A    between atoms: _240  and  _241
REMARK   94  A    between atoms: _246  and  _248
REMARK   95  A    between atoms: _248  and  _249
REMARK   96  A    between atoms: _248  and  _251
REMARK   97  A    between atoms: _251  and  _252
REMARK   98  A    between atoms: _257  and  _258
REMARK   99  A    between atoms: _260  and  _262
REMARK  100  A    between atoms: _262  and  _263
REMARK  101  A    between atoms: _262  and  _265
REMARK  102  A    between atoms: _265  and  _266
REMARK  103  A    between atoms: _271  and  _272
REMARK  104  A    between atoms: _274  and  _276
REMARK  105  A    between atoms: _276  and  _277
REMARK  106  A    between atoms: _276  and  _279
REMARK  107  A    between atoms: _279  and  _280
REMARK  108  A    between atoms: _280  and  _281
REMARK  109  A    between atoms: _281  and  _282
REMARK  110  A    between atoms: _291  and  _293
REMARK  111  A    between atoms: _293  and  _294
REMARK  112  A    between atoms: _293  and  _296
REMARK  113  A    between atoms: _296  and  _297
REMARK  114  A    between atoms: _297  and  _298
REMARK  115  A    between atoms: _298  and  _299
REMARK  116  A    between atoms: _299  and  _300
REMARK  117  A    between atoms: _304  and  _306
REMARK  118  A    between atoms: _306  and  _307
REMARK  119  A    between atoms: _306  and  _309
REMARK  120  A    between atoms: _309  and  _310
REMARK  121  A    between atoms: _310  and  _311
REMARK  122  A    between atoms: _314  and  _316
REMARK  123  A    between atoms: _316  and  _317
REMARK  124  A    between atoms: _316  and  _319
REMARK  125  A    between atoms: _322  and  _324
REMARK  126  A    between atoms: _324  and  _325
REMARK  127  A    between atoms: _324  and  _327
REMARK  128  A    between atoms: _327  and  _328
REMARK  129  A    between atoms: _338  and  _340
REMARK  130  A    between atoms: _340  and  _341
REMARK  131  A    between atoms: _340  and  _343
REMARK  132  A    between atoms: _343  and  _344
REMARK  133  A    between atoms: _344  and  _345
REMARK                            x       y       z     vdW  Elec       q    Type
REMARK                         _______ _______ _______ _____ _____    ______ ____
ROOT
ATOM      1  O   HOH     1      16.733  -4.884  23.452  0.00  0.00    +0.000 OA
ENDROOT
TORSDOF 0
REMARK  Name = ../refined-set-2016/3ary/3ary_pocket.pdb
REMARK  133 active torsions:
REMARK  status: ('A' for Active; 'I' for Inactive)
REMARK    1  A    between atoms: _1  and  _3
REMARK    2  A    between atoms: _3  and  _4
REMARK    3  A    between atoms: _3  and  _6
REMARK    4  A    between atoms: _6  and  _7
REMARK    5  A    between atoms: _17  and  _19
REMARK    6  A    between atoms: _19  and  _20
REMARK    7  A    between atoms: _19  and  _22
REMARK    8  A    between atoms: _22  and  _23
REMARK    9  A    between atoms: _29  and  _31
REMARK   10  A    between atoms: _31  and  _32
REMARK   11  A    between atoms: _31  and  _34
REMARK   12  A    between atoms: _34  and  _35
REMARK   13  A    between atoms: _37  and  _39
REMARK   14  A    between atoms: _39  and  _40
REMARK   15  A    between atoms: _39  and  _42
REMARK   16  A    between atoms: _45  and  _47
REMARK   17  A    between atoms: _47  and  _48
REMARK   18  A    between atoms: _47  and  _50
REMARK   19  A    between atoms: _50  and  _51
REMARK   20  A    between atoms: _53  and  _55
REMARK   21  A    between atoms: _55  and  _56
REMARK   22  A    between atoms: _55  and  _58
REMARK   23  A    between atoms: _61  and  _63
REMARK   24  A    between atoms: _63  and  _64
REMARK   25  A    between atoms: _66  and  _68
REMARK   26  A    between atoms: _68  and  _69
REMARK   27  A    between atoms: _68  and  _71
REMARK   28  A    between atoms: _71  and  _72
REMARK   29  A    between atoms: _82  and  _84
REMARK   30  A    between atoms: _84  and  _85
REMARK   31  A    between atoms: _84  and  _87
REMARK   32  A    between atoms: _87  and  _88
REMARK   33  A    between atoms: _91  and  _93
REMARK   34  A    between atoms: _93  and  _94
REMARK   35  A    between atoms: _93  and  _96
REMARK   36  A    between atoms: _96  and  _97
REMARK   37  A    between atoms: _100  and  _102
REMARK   38  A    between atoms: _102  and  _103
REMARK   39  A    between atoms: _102  and  _105
REMARK   40  A    between atoms: _105  and  _106
REMARK   41  A    between atoms: _106  and  _107
REMARK   42  A    between atoms: _110  and  _112
REMARK   43  A    between atoms: _112  and  _113
REMARK   44  A    between atoms: _112  and  _115
REMARK   45  A    between atoms: _115  and  _116
REMARK   46  A    between atoms: _122  and  _124
REMARK   47  A    between atoms: _124  and  _125
REMARK   48  A    between atoms: _127  and  _129
REMARK   49  A    between atoms: _129  and  _130
REMARK   50  A    between atoms: _132  and  _134
REMARK   51  A    between atoms: _134  and  _135
REMARK   52  A    between atoms: _138  and  _140
REMARK   53  A    between atoms: _140  and  _141
REMARK   54  A    between atoms: _140  and  _143
REMARK   55  A    between atoms: _143  and  _144
REMARK   56  A    between atoms: _144  and  _145
REMARK   57  A    between atoms: _145  and  _146
REMARK   58  A    between atoms: _146  and  _147
REMARK   59  A    between atoms: _151  and  _153
REMARK   60  A    between atoms: _153  and  _154
REMARK   61  A    between atoms: _153  and  _156
REMARK   62  A    between atoms: _156  and  _157
REMARK   63  A    between atoms: _157  and  _158
REMARK   64  A    between atoms: _160  and  _162
REMARK   65  A    between atoms: _162  and  _163
REMARK   66  A    between atoms: _162  and  _165
REMARK   67  A    between atoms: _165  and  _166
REMARK   68  A    between atoms: _171  and  _172
REMARK   69  A    between atoms: _174  and  _176
REMARK   70  A    between atoms: _176  and  _177
REMARK   71  A    between atoms: _176  and  _179
REMARK   72  A    between atoms: _179  and  _180
REMARK   73  A    between atoms: _183  and  _185
REMARK   74  A    between atoms: _185  and  _186
REMARK   75  A    between atoms: _185  and  _188
REMARK   76  A    between atoms: _188  and  _189
REMARK   77  A    between atoms: _195  and  _197
REMARK   78  A    between atoms: _197  and  _198
REMARK   79  A    between atoms: _197  and  _200
REMARK   80  A    between atoms: _200  and  _201
REMARK   81  A    between atoms: _206  and  _207
REMARK   82  A    between atoms: _209  and  _211
REMARK   83  A    between atoms: _211  and  _212
REMARK   84  A    between atoms: _214  and  _216
REMARK   85  A    between atoms: _216  and  _217
REMARK   86  A    between atoms: _219  and  _221
REMARK   87  A    between atoms: _221  and  _222
REMARK   88  A    between atoms: _221  and  _224
REMARK   89  A    between atoms: _224  and  _225
REMARK   90  A    between atoms: _235  and  _237
REMARK   91  A    between atoms: _237  and  _238
REMARK   92  A    between atoms: _237  and  _240
REMARK   93  A    between atoms: _240  and  _241
REMARK   94  A    between atoms: _246  and  _248
REMARK   95  A    between atoms: _248  and  _249
REMARK   96  A    between atoms: _248  and  _251
REMARK   97  A    between atoms: _251  and  _252
REMARK   98  A    between atoms: _257  and  _258
REMARK   99  A    between atoms: _260  and  _262
REMARK  100  A    between atoms: _262  and  _263
REMARK  101  A    between atoms: _262  and  _265
REMARK  102  A    between atoms: _265  and  _266
REMARK  103  A    between atoms: _271  and  _272
REMARK  104  A    between atoms: _274  and  _276
REMARK  105  A    between atoms: _276  and  _277
REMARK  106  A    between atoms: _276  and  _279
REMARK  107  A    between atoms: _279  and  _280
REMARK  108  A    between atoms: _280  and  _281
REMARK  109  A    between atoms: _281  and  _282
REMARK  110  A    between atoms: _291  and  _293
REMARK  111  A    between atoms: _293  and  _294
REMARK  112  A    between atoms: _293  and  _296
REMARK  113  A    between atoms: _296  and  _297
REMARK  114  A    between atoms: _297  and  _298
REMARK  115  A    between atoms: _298  and  _299
REMARK  116  A    between atoms: _299  and  _300
REMARK  117  A    between atoms: _304  and  _306
REMARK  118  A    between atoms: _306  and  _307
REMARK  119  A    between atoms: _306  and  _309
REMARK  120  A    between atoms: _309  and  _310
REMARK  121  A    between atoms: _310  and  _311
REMARK  122  A    between atoms: _314  and  _316
REMARK  123  A    between atoms: _316  and  _317
REMARK  124  A    between atoms: _316  and  _319
REMARK  125  A    between atoms: _322  and  _324
REMARK  126  A    between atoms: _324  and  _325
REMARK  127  A    between atoms: _324  and  _327
REMARK  128  A    between atoms: _327  and  _328
REMARK  129  A    between atoms: _338  and  _340
REMARK  130  A    between atoms: _340  and  _341
REMARK  131  A    between atoms: _340  and  _343
REMARK  132  A    between atoms: _343  and  _344
REMARK  133  A    between atoms: _344  and  _345
REMARK                            x       y       z     vdW  Elec       q    Type
REMARK                         _______ _______ _______ _____ _____    ______ ____
ROOT
ATOM      1  O   HOH     1      16.031  -7.939  28.687  0.00  0.00    +0.000 OA
ENDROOT
TORSDOF 0
REMARK  Name = ../refined-set-2016/3ary/3ary_pocket.pdb
REMARK  133 active torsions:
REMARK  status: ('A' for Active; 'I' for Inactive)
REMARK    1  A    between atoms: _1  and  _3
REMARK    2  A    between atoms: _3  and  _4
REMARK    3  A    between atoms: _3  and  _6
REMARK    4  A    between atoms: _6  and  _7
REMARK    5  A    between atoms: _17  and  _19
REMARK    6  A    between atoms: _19  and  _20
REMARK    7  A    between atoms: _19  and  _22
REMARK    8  A    between atoms: _22  and  _23
REMARK    9  A    between atoms: _29  and  _31
REMARK   10  A    between atoms: _31  and  _32
REMARK   11  A    between atoms: _31  and  _34
REMARK   12  A    between atoms: _34  and  _35
REMARK   13  A    between atoms: _37  and  _39
REMARK   14  A    between atoms: _39  and  _40
REMARK   15  A    between atoms: _39  and  _42
REMARK   16  A    between atoms: _45  and  _47
REMARK   17  A    between atoms: _47  and  _48
REMARK   18  A    between atoms: _47  and  _50
REMARK   19  A    between atoms: _50  and  _51
REMARK   20  A    between atoms: _53  and  _55
REMARK   21  A    between atoms: _55  and  _56
REMARK   22  A    between atoms: _55  and  _58
REMARK   23  A    between atoms: _61  and  _63
REMARK   24  A    between atoms: _63  and  _64
REMARK   25  A    between atoms: _66  and  _68
REMARK   26  A    between atoms: _68  and  _69
REMARK   27  A    between atoms: _68  and  _71
REMARK   28  A    between atoms: _71  and  _72
REMARK   29  A    between atoms: _82  and  _84
REMARK   30  A    between atoms: _84  and  _85
REMARK   31  A    between atoms: _84  and  _87
REMARK   32  A    between atoms: _87  and  _88
REMARK   33  A    between atoms: _91  and  _93
REMARK   34  A    between atoms: _93  and  _94
REMARK   35  A    between atoms: _93  and  _96
REMARK   36  A    between atoms: _96  and  _97
REMARK   37  A    between atoms: _100  and  _102
REMARK   38  A    between atoms: _102  and  _103
REMARK   39  A    between atoms: _102  and  _105
REMARK   40  A    between atoms: _105  and  _106
REMARK   41  A    between atoms: _106  and  _107
REMARK   42  A    between atoms: _110  and  _112
REMARK   43  A    between atoms: _112  and  _113
REMARK   44  A    between atoms: _112  and  _115
REMARK   45  A    between atoms: _115  and  _116
REMARK   46  A    between atoms: _122  and  _124
REMARK   47  A    between atoms: _124  and  _125
REMARK   48  A    between atoms: _127  and  _129
REMARK   49  A    between atoms: _129  and  _130
REMARK   50  A    between atoms: _132  and  _134
REMARK   51  A    between atoms: _134  and  _135
REMARK   52  A    between atoms: _138  and  _140
REMARK   53  A    between atoms: _140  and  _141
REMARK   54  A    between atoms: _140  and  _143
REMARK   55  A    between atoms: _143  and  _144
REMARK   56  A    between atoms: _144  and  _145
REMARK   57  A    between atoms: _145  and  _146
REMARK   58  A    between atoms: _146  and  _147
REMARK   59  A    between atoms: _151  and  _153
REMARK   60  A    between atoms: _153  and  _154
REMARK   61  A    between atoms: _153  and  _156
REMARK   62  A    between atoms: _156  and  _157
REMARK   63  A    between atoms: _157  and  _158
REMARK   64  A    between atoms: _160  and  _162
REMARK   65  A    between atoms: _162  and  _163
REMARK   66  A    between atoms: _162  and  _165
REMARK   67  A    between atoms: _165  and  _166
REMARK   68  A    between atoms: _171  and  _172
REMARK   69  A    between atoms: _174  and  _176
REMARK   70  A    between atoms: _176  and  _177
REMARK   71  A    between atoms: _176  and  _179
REMARK   72  A    between atoms: _179  and  _180
REMARK   73  A    between atoms: _183  and  _185
REMARK   74  A    between atoms: _185  and  _186
REMARK   75  A    between atoms: _185  and  _188
REMARK   76  A    between atoms: _188  and  _189
REMARK   77  A    between atoms: _195  and  _197
REMARK   78  A    between atoms: _197  and  _198
REMARK   79  A    between atoms: _197  and  _200
REMARK   80  A    between atoms: _200  and  _201
REMARK   81  A    between atoms: _206  and  _207
REMARK   82  A    between atoms: _209  and  _211
REMARK   83  A    between atoms: _211  and  _212
REMARK   84  A    between atoms: _214  and  _216
REMARK   85  A    between atoms: _216  and  _217
REMARK   86  A    between atoms: _219  and  _221
REMARK   87  A    between atoms: _221  and  _222
REMARK   88  A    between atoms: _221  and  _224
REMARK   89  A    between atoms: _224  and  _225
REMARK   90  A    between atoms: _235  and  _237
REMARK   91  A    between atoms: _237  and  _238
REMARK   92  A    between atoms: _237  and  _240
REMARK   93  A    between atoms: _240  and  _241
REMARK   94  A    between atoms: _246  and  _248
REMARK   95  A    between atoms: _248  and  _249
REMARK   96  A    between atoms: _248  and  _251
REMARK   97  A    between atoms: _251  and  _252
REMARK   98  A    between atoms: _257  and  _258
REMARK   99  A    between atoms: _260  and  _262
REMARK  100  A    between atoms: _262  and  _263
REMARK  101  A    between atoms: _262  and  _265
REMARK  102  A    between atoms: _265  and  _266
REMARK  103  A    between atoms: _271  and  _272
REMARK  104  A    between atoms: _274  and  _276
REMARK  105  A    between atoms: _276  and  _277
REMARK  106  A    between atoms: _276  and  _279
REMARK  107  A    between atoms: _279  and  _280
REMARK  108  A    between atoms: _280  and  _281
REMARK  109  A    between atoms: _281  and  _282
REMARK  110  A    between atoms: _291  and  _293
REMARK  111  A    between atoms: _293  and  _294
REMARK  112  A    between atoms: _293  and  _296
REMARK  113  A    between atoms: _296  and  _297
REMARK  114  A    between atoms: _297  and  _298
REMARK  115  A    between atoms: _298  and  _299
REMARK  116  A    between atoms: _299  and  _300
REMARK  117  A    between atoms: _304  and  _306
REMARK  118  A    between atoms: _306  and  _307
REMARK  119  A    between atoms: _306  and  _309
REMARK  120  A    between atoms: _309  and  _310
REMARK  121  A    between atoms: _310  and  _311
REMARK  122  A    between atoms: _314  and  _316
REMARK  123  A    between atoms: _316  and  _317
REMARK  124  A    between atoms: _316  and  _319
REMARK  125  A    between atoms: _322  and  _324
REMARK  126  A    between atoms: _324  and  _325
REMARK  127  A    between atoms: _324  and  _327
REMARK  128  A    between atoms: _327  and  _328
REMARK  129  A    between atoms: _338  and  _340
REMARK  130  A    between atoms: _340  and  _341
REMARK  131  A    between atoms: _340  and  _343
REMARK  132  A    between atoms: _343  and  _344
REMARK  133  A    between atoms: _344  and  _345
REMARK                            x       y       z     vdW  Elec       q    Type
REMARK                         _______ _______ _______ _____ _____    ______ ____
ROOT
ATOM      1  O   HOH     1      22.786  -6.022  25.092  0.00  0.00    +0.000 OA
ENDROOT
TORSDOF 0
REMARK  Name = ../refined-set-2016/3ary/3ary_pocket.pdb
REMARK  133 active torsions:
REMARK  status: ('A' for Active; 'I' for Inactive)
REMARK    1  A    between atoms: _1  and  _3
REMARK    2  A    between atoms: _3  and  _4
REMARK    3  A    between atoms: _3  and  _6
REMARK    4  A    between atoms: _6  and  _7
REMARK    5  A    between atoms: _17  and  _19
REMARK    6  A    between atoms: _19  and  _20
REMARK    7  A    between atoms: _19  and  _22
REMARK    8  A    between atoms: _22  and  _23
REMARK    9  A    between atoms: _29  and  _31
REMARK   10  A    between atoms: _31  and  _32
REMARK   11  A    between atoms: _31  and  _34
REMARK   12  A    between atoms: _34  and  _35
REMARK   13  A    between atoms: _37  and  _39
REMARK   14  A    between atoms: _39  and  _40
REMARK   15  A    between atoms: _39  and  _42
REMARK   16  A    between atoms: _45  and  _47
REMARK   17  A    between atoms: _47  and  _48
REMARK   18  A    between atoms: _47  and  _50
REMARK   19  A    between atoms: _50  and  _51
REMARK   20  A    between atoms: _53  and  _55
REMARK   21  A    between atoms: _55  and  _56
REMARK   22  A    between atoms: _55  and  _58
REMARK   23  A    between atoms: _61  and  _63
REMARK   24  A    between atoms: _63  and  _64
REMARK   25  A    between atoms: _66  and  _68
REMARK   26  A    between atoms: _68  and  _69
REMARK   27  A    between atoms: _68  and  _71
REMARK   28  A    between atoms: _71  and  _72
REMARK   29  A    between atoms: _82  and  _84
REMARK   30  A    between atoms: _84  and  _85
REMARK   31  A    between atoms: _84  and  _87
REMARK   32  A    between atoms: _87  and  _88
REMARK   33  A    between atoms: _91  and  _93
REMARK   34  A    between atoms: _93  and  _94
REMARK   35  A    between atoms: _93  and  _96
REMARK   36  A    between atoms: _96  and  _97
REMARK   37  A    between atoms: _100  and  _102
REMARK   38  A    between atoms: _102  and  _103
REMARK   39  A    between atoms: _102  and  _105
REMARK   40  A    between atoms: _105  and  _106
REMARK   41  A    between atoms: _106  and  _107
REMARK   42  A    between atoms: _110  and  _112
REMARK   43  A    between atoms: _112  and  _113
REMARK   44  A    between atoms: _112  and  _115
REMARK   45  A    between atoms: _115  and  _116
REMARK   46  A    between atoms: _122  and  _124
REMARK   47  A    between atoms: _124  and  _125
REMARK   48  A    between atoms: _127  and  _129
REMARK   49  A    between atoms: _129  and  _130
REMARK   50  A    between atoms: _132  and  _134
REMARK   51  A    between atoms: _134  and  _135
REMARK   52  A    between atoms: _138  and  _140
REMARK   53  A    between atoms: _140  and  _141
REMARK   54  A    between atoms: _140  and  _143
REMARK   55  A    between atoms: _143  and  _144
REMARK   56  A    between atoms: _144  and  _145
REMARK   57  A    between atoms: _145  and  _146
REMARK   58  A    between atoms: _146  and  _147
REMARK   59  A    between atoms: _151  and  _153
REMARK   60  A    between atoms: _153  and  _154
REMARK   61  A    between atoms: _153  and  _156
REMARK   62  A    between atoms: _156  and  _157
REMARK   63  A    between atoms: _157  and  _158
REMARK   64  A    between atoms: _160  and  _162
REMARK   65  A    between atoms: _162  and  _163
REMARK   66  A    between atoms: _162  and  _165
REMARK   67  A    between atoms: _165  and  _166
REMARK   68  A    between atoms: _171  and  _172
REMARK   69  A    between atoms: _174  and  _176
REMARK   70  A    between atoms: _176  and  _177
REMARK   71  A    between atoms: _176  and  _179
REMARK   72  A    between atoms: _179  and  _180
REMARK   73  A    between atoms: _183  and  _185
REMARK   74  A    between atoms: _185  and  _186
REMARK   75  A    between atoms: _185  and  _188
REMARK   76  A    between atoms: _188  and  _189
REMARK   77  A    between atoms: _195  and  _197
REMARK   78  A    between atoms: _197  and  _198
REMARK   79  A    between atoms: _197  and  _200
REMARK   80  A    between atoms: _200  and  _201
REMARK   81  A    between atoms: _206  and  _207
REMARK   82  A    between atoms: _209  and  _211
REMARK   83  A    between atoms: _211  and  _212
REMARK   84  A    between atoms: _214  and  _216
REMARK   85  A    between atoms: _216  and  _217
REMARK   86  A    between atoms: _219  and  _221
REMARK   87  A    between atoms: _221  and  _222
REMARK   88  A    between atoms: _221  and  _224
REMARK   89  A    between atoms: _224  and  _225
REMARK   90  A    between atoms: _235  and  _237
REMARK   91  A    between atoms: _237  and  _238
REMARK   92  A    between atoms: _237  and  _240
REMARK   93  A    between atoms: _240  and  _241
REMARK   94  A    between atoms: _246  and  _248
REMARK   95  A    between atoms: _248  and  _249
REMARK   96  A    between atoms: _248  and  _251
REMARK   97  A    between atoms: _251  and  _252
REMARK   98  A    between atoms: _257  and  _258
REMARK   99  A    between atoms: _260  and  _262
REMARK  100  A    between atoms: _262  and  _263
REMARK  101  A    between atoms: _262  and  _265
REMARK  102  A    between atoms: _265  and  _266
REMARK  103  A    between atoms: _271  and  _272
REMARK  104  A    between atoms: _274  and  _276
REMARK  105  A    between atoms: _276  and  _277
REMARK  106  A    between atoms: _276  and  _279
REMARK  107  A    between atoms: _279  and  _280
REMARK  108  A    between atoms: _280  and  _281
REMARK  109  A    between atoms: _281  and  _282
REMARK  110  A    between atoms: _291  and  _293
REMARK  111  A    between atoms: _293  and  _294
REMARK  112  A    between atoms: _293  and  _296
REMARK  113  A    between atoms: _296  and  _297
REMARK  114  A    between atoms: _297  and  _298
REMARK  115  A    between atoms: _298  and  _299
REMARK  116  A    between atoms: _299  and  _300
REMARK  117  A    between atoms: _304  and  _306
REMARK  118  A    between atoms: _306  and  _307
REMARK  119  A    between atoms: _306  and  _309
REMARK  120  A    between atoms: _309  and  _310
REMARK  121  A    between atoms: _310  and  _311
REMARK  122  A    between atoms: _314  and  _316
REMARK  123  A    between atoms: _316  and  _317
REMARK  124  A    between atoms: _316  and  _319
REMARK  125  A    between atoms: _322  and  _324
REMARK  126  A    between atoms: _324  and  _325
REMARK  127  A    between atoms: _324  and  _327
REMARK  128  A    between atoms: _327  and  _328
REMARK  129  A    between atoms: _338  and  _340
REMARK  130  A    between atoms: _340  and  _341
REMARK  131  A    between atoms: _340  and  _343
REMARK  132  A    between atoms: _343  and  _344
REMARK  133  A    between atoms: _344  and  _345
REMARK                            x       y       z     vdW  Elec       q    Type
REMARK                         _______ _______ _______ _____ _____    ______ ____
ROOT
ATOM      1  O   HOH     1      23.165 -10.772  16.278  0.00  0.00    +0.000 OA
ENDROOT
TORSDOF 0
REMARK  Name = ../refined-set-2016/3ary/3ary_pocket.pdb
REMARK  133 active torsions:
REMARK  status: ('A' for Active; 'I' for Inactive)
REMARK    1  A    between atoms: _1  and  _3
REMARK    2  A    between atoms: _3  and  _4
REMARK    3  A    between atoms: _3  and  _6
REMARK    4  A    between atoms: _6  and  _7
REMARK    5  A    between atoms: _17  and  _19
REMARK    6  A    between atoms: _19  and  _20
REMARK    7  A    between atoms: _19  and  _22
REMARK    8  A    between atoms: _22  and  _23
REMARK    9  A    between atoms: _29  and  _31
REMARK   10  A    between atoms: _31  and  _32
REMARK   11  A    between atoms: _31  and  _34
REMARK   12  A    between atoms: _34  and  _35
REMARK   13  A    between atoms: _37  and  _39
REMARK   14  A    between atoms: _39  and  _40
REMARK   15  A    between atoms: _39  and  _42
REMARK   16  A    between atoms: _45  and  _47
REMARK   17  A    between atoms: _47  and  _48
REMARK   18  A    between atoms: _47  and  _50
REMARK   19  A    between atoms: _50  and  _51
REMARK   20  A    between atoms: _53  and  _55
REMARK   21  A    between atoms: _55  and  _56
REMARK   22  A    between atoms: _55  and  _58
REMARK   23  A    between atoms: _61  and  _63
REMARK   24  A    between atoms: _63  and  _64
REMARK   25  A    between atoms: _66  and  _68
REMARK   26  A    between atoms: _68  and  _69
REMARK   27  A    between atoms: _68  and  _71
REMARK   28  A    between atoms: _71  and  _72
REMARK   29  A    between atoms: _82  and  _84
REMARK   30  A    between atoms: _84  and  _85
REMARK   31  A    between atoms: _84  and  _87
REMARK   32  A    between atoms: _87  and  _88
REMARK   33  A    between atoms: _91  and  _93
REMARK   34  A    between atoms: _93  and  _94
REMARK   35  A    between atoms: _93  and  _96
REMARK   36  A    between atoms: _96  and  _97
REMARK   37  A    between atoms: _100  and  _102
REMARK   38  A    between atoms: _102  and  _103
REMARK   39  A    between atoms: _102  and  _105
REMARK   40  A    between atoms: _105  and  _106
REMARK   41  A    between atoms: _106  and  _107
REMARK   42  A    between atoms: _110  and  _112
REMARK   43  A    between atoms: _112  and  _113
REMARK   44  A    between atoms: _112  and  _115
REMARK   45  A    between atoms: _115  and  _116
REMARK   46  A    between atoms: _122  and  _124
REMARK   47  A    between atoms: _124  and  _125
REMARK   48  A    between atoms: _127  and  _129
REMARK   49  A    between atoms: _129  and  _130
REMARK   50  A    between atoms: _132  and  _134
REMARK   51  A    between atoms: _134  and  _135
REMARK   52  A    between atoms: _138  and  _140
REMARK   53  A    between atoms: _140  and  _141
REMARK   54  A    between atoms: _140  and  _143
REMARK   55  A    between atoms: _143  and  _144
REMARK   56  A    between atoms: _144  and  _145
REMARK   57  A    between atoms: _145  and  _146
REMARK   58  A    between atoms: _146  and  _147
REMARK   59  A    between atoms: _151  and  _153
REMARK   60  A    between atoms: _153  and  _154
REMARK   61  A    between atoms: _153  and  _156
REMARK   62  A    between atoms: _156  and  _157
REMARK   63  A    between atoms: _157  and  _158
REMARK   64  A    between atoms: _160  and  _162
REMARK   65  A    between atoms: _162  and  _163
REMARK   66  A    between atoms: _162  and  _165
REMARK   67  A    between atoms: _165  and  _166
REMARK   68  A    between atoms: _171  and  _172
REMARK   69  A    between atoms: _174  and  _176
REMARK   70  A    between atoms: _176  and  _177
REMARK   71  A    between atoms: _176  and  _179
REMARK   72  A    between atoms: _179  and  _180
REMARK   73  A    between atoms: _183  and  _185
REMARK   74  A    between atoms: _185  and  _186
REMARK   75  A    between atoms: _185  and  _188
REMARK   76  A    between atoms: _188  and  _189
REMARK   77  A    between atoms: _195  and  _197
REMARK   78  A    between atoms: _197  and  _198
REMARK   79  A    between atoms: _197  and  _200
REMARK   80  A    between atoms: _200  and  _201
REMARK   81  A    between atoms: _206  and  _207
REMARK   82  A    between atoms: _209  and  _211
REMARK   83  A    between atoms: _211  and  _212
REMARK   84  A    between atoms: _214  and  _216
REMARK   85  A    between atoms: _216  and  _217
REMARK   86  A    between atoms: _219  and  _221
REMARK   87  A    between atoms: _221  and  _222
REMARK   88  A    between atoms: _221  and  _224
REMARK   89  A    between atoms: _224  and  _225
REMARK   90  A    between atoms: _235  and  _237
REMARK   91  A    between atoms: _237  and  _238
REMARK   92  A    between atoms: _237  and  _240
REMARK   93  A    between atoms: _240  and  _241
REMARK   94  A    between atoms: _246  and  _248
REMARK   95  A    between atoms: _248  and  _249
REMARK   96  A    between atoms: _248  and  _251
REMARK   97  A    between atoms: _251  and  _252
REMARK   98  A    between atoms: _257  and  _258
REMARK   99  A    between atoms: _260  and  _262
REMARK  100  A    between atoms: _262  and  _263
REMARK  101  A    between atoms: _262  and  _265
REMARK  102  A    between atoms: _265  and  _266
REMARK  103  A    between atoms: _271  and  _272
REMARK  104  A    between atoms: _274  and  _276
REMARK  105  A    between atoms: _276  and  _277
REMARK  106  A    between atoms: _276  and  _279
REMARK  107  A    between atoms: _279  and  _280
REMARK  108  A    between atoms: _280  and  _281
REMARK  109  A    between atoms: _281  and  _282
REMARK  110  A    between atoms: _291  and  _293
REMARK  111  A    between atoms: _293  and  _294
REMARK  112  A    between atoms: _293  and  _296
REMARK  113  A    between atoms: _296  and  _297
REMARK  114  A    between atoms: _297  and  _298
REMARK  115  A    between atoms: _298  and  _299
REMARK  116  A    between atoms: _299  and  _300
REMARK  117  A    between atoms: _304  and  _306
REMARK  118  A    between atoms: _306  and  _307
REMARK  119  A    between atoms: _306  and  _309
REMARK  120  A    between atoms: _309  and  _310
REMARK  121  A    between atoms: _310  and  _311
REMARK  122  A    between atoms: _314  and  _316
REMARK  123  A    between atoms: _316  and  _317
REMARK  124  A    between atoms: _316  and  _319
REMARK  125  A    between atoms: _322  and  _324
REMARK  126  A    between atoms: _324  and  _325
REMARK  127  A    between atoms: _324  and  _327
REMARK  128  A    between atoms: _327  and  _328
REMARK  129  A    between atoms: _338  and  _340
REMARK  130  A    between atoms: _340  and  _341
REMARK  131  A    between atoms: _340  and  _343
REMARK  132  A    between atoms: _343  and  _344
REMARK  133  A    between atoms: _344  and  _345
REMARK                            x       y       z     vdW  Elec       q    Type
REMARK                         _______ _______ _______ _____ _____    ______ ____
ROOT
ATOM      1  O   HOH     1      19.847  -1.981  26.297  0.00  0.00    +0.000 OA
ENDROOT
TORSDOF 0
REMARK  Name = ../refined-set-2016/3ary/3ary_pocket.pdb
REMARK  133 active torsions:
REMARK  status: ('A' for Active; 'I' for Inactive)
REMARK    1  A    between atoms: _1  and  _3
REMARK    2  A    between atoms: _3  and  _4
REMARK    3  A    between atoms: _3  and  _6
REMARK    4  A    between atoms: _6  and  _7
REMARK    5  A    between atoms: _17  and  _19
REMARK    6  A    between atoms: _19  and  _20
REMARK    7  A    between atoms: _19  and  _22
REMARK    8  A    between atoms: _22  and  _23
REMARK    9  A    between atoms: _29  and  _31
REMARK   10  A    between atoms: _31  and  _32
REMARK   11  A    between atoms: _31  and  _34
REMARK   12  A    between atoms: _34  and  _35
REMARK   13  A    between atoms: _37  and  _39
REMARK   14  A    between atoms: _39  and  _40
REMARK   15  A    between atoms: _39  and  _42
REMARK   16  A    between atoms: _45  and  _47
REMARK   17  A    between atoms: _47  and  _48
REMARK   18  A    between atoms: _47  and  _50
REMARK   19  A    between atoms: _50  and  _51
REMARK   20  A    between atoms: _53  and  _55
REMARK   21  A    between atoms: _55  and  _56
REMARK   22  A    between atoms: _55  and  _58
REMARK   23  A    between atoms: _61  and  _63
REMARK   24  A    between atoms: _63  and  _64
REMARK   25  A    between atoms: _66  and  _68
REMARK   26  A    between atoms: _68  and  _69
REMARK   27  A    between atoms: _68  and  _71
REMARK   28  A    between atoms: _71  and  _72
REMARK   29  A    between atoms: _82  and  _84
REMARK   30  A    between atoms: _84  and  _85
REMARK   31  A    between atoms: _84  and  _87
REMARK   32  A    between atoms: _87  and  _88
REMARK   33  A    between atoms: _91  and  _93
REMARK   34  A    between atoms: _93  and  _94
REMARK   35  A    between atoms: _93  and  _96
REMARK   36  A    between atoms: _96  and  _97
REMARK   37  A    between atoms: _100  and  _102
REMARK   38  A    between atoms: _102  and  _103
REMARK   39  A    between atoms: _102  and  _105
REMARK   40  A    between atoms: _105  and  _106
REMARK   41  A    between atoms: _106  and  _107
REMARK   42  A    between atoms: _110  and  _112
REMARK   43  A    between atoms: _112  and  _113
REMARK   44  A    between atoms: _112  and  _115
REMARK   45  A    between atoms: _115  and  _116
REMARK   46  A    between atoms: _122  and  _124
REMARK   47  A    between atoms: _124  and  _125
REMARK   48  A    between atoms: _127  and  _129
REMARK   49  A    between atoms: _129  and  _130
REMARK   50  A    between atoms: _132  and  _134
REMARK   51  A    between atoms: _134  and  _135
REMARK   52  A    between atoms: _138  and  _140
REMARK   53  A    between atoms: _140  and  _141
REMARK   54  A    between atoms: _140  and  _143
REMARK   55  A    between atoms: _143  and  _144
REMARK   56  A    between atoms: _144  and  _145
REMARK   57  A    between atoms: _145  and  _146
REMARK   58  A    between atoms: _146  and  _147
REMARK   59  A    between atoms: _151  and  _153
REMARK   60  A    between atoms: _153  and  _154
REMARK   61  A    between atoms: _153  and  _156
REMARK   62  A    between atoms: _156  and  _157
REMARK   63  A    between atoms: _157  and  _158
REMARK   64  A    between atoms: _160  and  _162
REMARK   65  A    between atoms: _162  and  _163
REMARK   66  A    between atoms: _162  and  _165
REMARK   67  A    between atoms: _165  and  _166
REMARK   68  A    between atoms: _171  and  _172
REMARK   69  A    between atoms: _174  and  _176
REMARK   70  A    between atoms: _176  and  _177
REMARK   71  A    between atoms: _176  and  _179
REMARK   72  A    between atoms: _179  and  _180
REMARK   73  A    between atoms: _183  and  _185
REMARK   74  A    between atoms: _185  and  _186
REMARK   75  A    between atoms: _185  and  _188
REMARK   76  A    between atoms: _188  and  _189
REMARK   77  A    between atoms: _195  and  _197
REMARK   78  A    between atoms: _197  and  _198
REMARK   79  A    between atoms: _197  and  _200
REMARK   80  A    between atoms: _200  and  _201
REMARK   81  A    between atoms: _206  and  _207
REMARK   82  A    between atoms: _209  and  _211
REMARK   83  A    between atoms: _211  and  _212
REMARK   84  A    between atoms: _214  and  _216
REMARK   85  A    between atoms: _216  and  _217
REMARK   86  A    between atoms: _219  and  _221
REMARK   87  A    between atoms: _221  and  _222
REMARK   88  A    between atoms: _221  and  _224
REMARK   89  A    between atoms: _224  and  _225
REMARK   90  A    between atoms: _235  and  _237
REMARK   91  A    between atoms: _237  and  _238
REMARK   92  A    between atoms: _237  and  _240
REMARK   93  A    between atoms: _240  and  _241
REMARK   94  A    between atoms: _246  and  _248
REMARK   95  A    between atoms: _248  and  _249
REMARK   96  A    between atoms: _248  and  _251
REMARK   97  A    between atoms: _251  and  _252
REMARK   98  A    between atoms: _257  and  _258
REMARK   99  A    between atoms: _260  and  _262
REMARK  100  A    between atoms: _262  and  _263
REMARK  101  A    between atoms: _262  and  _265
REMARK  102  A    between atoms: _265  and  _266
REMARK  103  A    between atoms: _271  and  _272
REMARK  104  A    between atoms: _274  and  _276
REMARK  105  A    between atoms: _276  and  _277
REMARK  106  A    between atoms: _276  and  _279
REMARK  107  A    between atoms: _279  and  _280
REMARK  108  A    between atoms: _280  and  _281
REMARK  109  A    between atoms: _281  and  _282
REMARK  110  A    between atoms: _291  and  _293
REMARK  111  A    between atoms: _293  and  _294
REMARK  112  A    between atoms: _293  and  _296
REMARK  113  A    between atoms: _296  and  _297
REMARK  114  A    between atoms: _297  and  _298
REMARK  115  A    between atoms: _298  and  _299
REMARK  116  A    between atoms: _299  and  _300
REMARK  117  A    between atoms: _304  and  _306
REMARK  118  A    between atoms: _306  and  _307
REMARK  119  A    between atoms: _306  and  _309
REMARK  120  A    between atoms: _309  and  _310
REMARK  121  A    between atoms: _310  and  _311
REMARK  122  A    between atoms: _314  and  _316
REMARK  123  A    between atoms: _316  and  _317
REMARK  124  A    between atoms: _316  and  _319
REMARK  125  A    between atoms: _322  and  _324
REMARK  126  A    between atoms: _324  and  _325
REMARK  127  A    between atoms: _324  and  _327
REMARK  128  A    between atoms: _327  and  _328
REMARK  129  A    between atoms: _338  and  _340
REMARK  130  A    between atoms: _340  and  _341
REMARK  131  A    between atoms: _340  and  _343
REMARK  132  A    between atoms: _343  and  _344
REMARK  133  A    between atoms: _344  and  _345
REMARK                            x       y       z     vdW  Elec       q    Type
REMARK                         _______ _______ _______ _____ _____    ______ ____
ROOT
ATOM      1  O   HOH     1      20.910 -13.943  23.621  0.00  0.00    +0.000 OA
ENDROOT
TORSDOF 0
REMARK  Name = ../refined-set-2016/3ary/3ary_pocket.pdb
REMARK  133 active torsions:
REMARK  status: ('A' for Active; 'I' for Inactive)
REMARK    1  A    between atoms: _1  and  _3
REMARK    2  A    between atoms: _3  and  _4
REMARK    3  A    between atoms: _3  and  _6
REMARK    4  A    between atoms: _6  and  _7
REMARK    5  A    between atoms: _17  and  _19
REMARK    6  A    between atoms: _19  and  _20
REMARK    7  A    between atoms: _19  and  _22
REMARK    8  A    between atoms: _22  and  _23
REMARK    9  A    between atoms: _29  and  _31
REMARK   10  A    between atoms: _31  and  _32
REMARK   11  A    between atoms: _31  and  _34
REMARK   12  A    between atoms: _34  and  _35
REMARK   13  A    between atoms: _37  and  _39
REMARK   14  A    between atoms: _39  and  _40
REMARK   15  A    between atoms: _39  and  _42
REMARK   16  A    between atoms: _45  and  _47
REMARK   17  A    between atoms: _47  and  _48
REMARK   18  A    between atoms: _47  and  _50
REMARK   19  A    between atoms: _50  and  _51
REMARK   20  A    between atoms: _53  and  _55
REMARK   21  A    between atoms: _55  and  _56
REMARK   22  A    between atoms: _55  and  _58
REMARK   23  A    between atoms: _61  and  _63
REMARK   24  A    between atoms: _63  and  _64
REMARK   25  A    between atoms: _66  and  _68
REMARK   26  A    between atoms: _68  and  _69
REMARK   27  A    between atoms: _68  and  _71
REMARK   28  A    between atoms: _71  and  _72
REMARK   29  A    between atoms: _82  and  _84
REMARK   30  A    between atoms: _84  and  _85
REMARK   31  A    between atoms: _84  and  _87
REMARK   32  A    between atoms: _87  and  _88
REMARK   33  A    between atoms: _91  and  _93
REMARK   34  A    between atoms: _93  and  _94
REMARK   35  A    between atoms: _93  and  _96
REMARK   36  A    between atoms: _96  and  _97
REMARK   37  A    between atoms: _100  and  _102
REMARK   38  A    between atoms: _102  and  _103
REMARK   39  A    between atoms: _102  and  _105
REMARK   40  A    between atoms: _105  and  _106
REMARK   41  A    between atoms: _106  and  _107
REMARK   42  A    between atoms: _110  and  _112
REMARK   43  A    between atoms: _112  and  _113
REMARK   44  A    between atoms: _112  and  _115
REMARK   45  A    between atoms: _115  and  _116
REMARK   46  A    between atoms: _122  and  _124
REMARK   47  A    between atoms: _124  and  _125
REMARK   48  A    between atoms: _127  and  _129
REMARK   49  A    between atoms: _129  and  _130
REMARK   50  A    between atoms: _132  and  _134
REMARK   51  A    between atoms: _134  and  _135
REMARK   52  A    between atoms: _138  and  _140
REMARK   53  A    between atoms: _140  and  _141
REMARK   54  A    between atoms: _140  and  _143
REMARK   55  A    between atoms: _143  and  _144
REMARK   56  A    between atoms: _144  and  _145
REMARK   57  A    between atoms: _145  and  _146
REMARK   58  A    between atoms: _146  and  _147
REMARK   59  A    between atoms: _151  and  _153
REMARK   60  A    between atoms: _153  and  _154
REMARK   61  A    between atoms: _153  and  _156
REMARK   62  A    between atoms: _156  and  _157
REMARK   63  A    between atoms: _157  and  _158
REMARK   64  A    between atoms: _160  and  _162
REMARK   65  A    between atoms: _162  and  _163
REMARK   66  A    between atoms: _162  and  _165
REMARK   67  A    between atoms: _165  and  _166
REMARK   68  A    between atoms: _171  and  _172
REMARK   69  A    between atoms: _174  and  _176
REMARK   70  A    between atoms: _176  and  _177
REMARK   71  A    between atoms: _176  and  _179
REMARK   72  A    between atoms: _179  and  _180
REMARK   73  A    between atoms: _183  and  _185
REMARK   74  A    between atoms: _185  and  _186
REMARK   75  A    between atoms: _185  and  _188
REMARK   76  A    between atoms: _188  and  _189
REMARK   77  A    between atoms: _195  and  _197
REMARK   78  A    between atoms: _197  and  _198
REMARK   79  A    between atoms: _197  and  _200
REMARK   80  A    between atoms: _200  and  _201
REMARK   81  A    between atoms: _206  and  _207
REMARK   82  A    between atoms: _209  and  _211
REMARK   83  A    between atoms: _211  and  _212
REMARK   84  A    between atoms: _214  and  _216
REMARK   85  A    between atoms: _216  and  _217
REMARK   86  A    between atoms: _219  and  _221
REMARK   87  A    between atoms: _221  and  _222
REMARK   88  A    between atoms: _221  and  _224
REMARK   89  A    between atoms: _224  and  _225
REMARK   90  A    between atoms: _235  and  _237
REMARK   91  A    between atoms: _237  and  _238
REMARK   92  A    between atoms: _237  and  _240
REMARK   93  A    between atoms: _240  and  _241
REMARK   94  A    between atoms: _246  and  _248
REMARK   95  A    between atoms: _248  and  _249
REMARK   96  A    between atoms: _248  and  _251
REMARK   97  A    between atoms: _251  and  _252
REMARK   98  A    between atoms: _257  and  _258
REMARK   99  A    between atoms: _260  and  _262
REMARK  100  A    between atoms: _262  and  _263
REMARK  101  A    between atoms: _262  and  _265
REMARK  102  A    between atoms: _265  and  _266
REMARK  103  A    between atoms: _271  and  _272
REMARK  104  A    between atoms: _274  and  _276
REMARK  105  A    between atoms: _276  and  _277
REMARK  106  A    between atoms: _276  and  _279
REMARK  107  A    between atoms: _279  and  _280
REMARK  108  A    between atoms: _280  and  _281
REMARK  109  A    between atoms: _281  and  _282
REMARK  110  A    between atoms: _291  and  _293
REMARK  111  A    between atoms: _293  and  _294
REMARK  112  A    between atoms: _293  and  _296
REMARK  113  A    between atoms: _296  and  _297
REMARK  114  A    between atoms: _297  and  _298
REMARK  115  A    between atoms: _298  and  _299
REMARK  116  A    between atoms: _299  and  _300
REMARK  117  A    between atoms: _304  and  _306
REMARK  118  A    between atoms: _306  and  _307
REMARK  119  A    between atoms: _306  and  _309
REMARK  120  A    between atoms: _309  and  _310
REMARK  121  A    between atoms: _310  and  _311
REMARK  122  A    between atoms: _314  and  _316
REMARK  123  A    between atoms: _316  and  _317
REMARK  124  A    between atoms: _316  and  _319
REMARK  125  A    between atoms: _322  and  _324
REMARK  126  A    between atoms: _324  and  _325
REMARK  127  A    between atoms: _324  and  _327
REMARK  128  A    between atoms: _327  and  _328
REMARK  129  A    between atoms: _338  and  _340
REMARK  130  A    between atoms: _340  and  _341
REMARK  131  A    between atoms: _340  and  _343
REMARK  132  A    between atoms: _343  and  _344
REMARK  133  A    between atoms: _344  and  _345
REMARK                            x       y       z     vdW  Elec       q    Type
REMARK                         _______ _______ _______ _____ _____    ______ ____
ROOT
ATOM      1  O   HOH     1      25.771  -6.261  24.525  0.00  0.00    +0.000 OA
ENDROOT
TORSDOF 0
REMARK  Name = ../refined-set-2016/3ary/3ary_pocket.pdb
REMARK  133 active torsions:
REMARK  status: ('A' for Active; 'I' for Inactive)
REMARK    1  A    between atoms: _1  and  _3
REMARK    2  A    between atoms: _3  and  _4
REMARK    3  A    between atoms: _3  and  _6
REMARK    4  A    between atoms: _6  and  _7
REMARK    5  A    between atoms: _17  and  _19
REMARK    6  A    between atoms: _19  and  _20
REMARK    7  A    between atoms: _19  and  _22
REMARK    8  A    between atoms: _22  and  _23
REMARK    9  A    between atoms: _29  and  _31
REMARK   10  A    between atoms: _31  and  _32
REMARK   11  A    between atoms: _31  and  _34
REMARK   12  A    between atoms: _34  and  _35
REMARK   13  A    between atoms: _37  and  _39
REMARK   14  A    between atoms: _39  and  _40
REMARK   15  A    between atoms: _39  and  _42
REMARK   16  A    between atoms: _45  and  _47
REMARK   17  A    between atoms: _47  and  _48
REMARK   18  A    between atoms: _47  and  _50
REMARK   19  A    between atoms: _50  and  _51
REMARK   20  A    between atoms: _53  and  _55
REMARK   21  A    between atoms: _55  and  _56
REMARK   22  A    between atoms: _55  and  _58
REMARK   23  A    between atoms: _61  and  _63
REMARK   24  A    between atoms: _63  and  _64
REMARK   25  A    between atoms: _66  and  _68
REMARK   26  A    between atoms: _68  and  _69
REMARK   27  A    between atoms: _68  and  _71
REMARK   28  A    between atoms: _71  and  _72
REMARK   29  A    between atoms: _82  and  _84
REMARK   30  A    between atoms: _84  and  _85
REMARK   31  A    between atoms: _84  and  _87
REMARK   32  A    between atoms: _87  and  _88
REMARK   33  A    between atoms: _91  and  _93
REMARK   34  A    between atoms: _93  and  _94
REMARK   35  A    between atoms: _93  and  _96
REMARK   36  A    between atoms: _96  and  _97
REMARK   37  A    between atoms: _100  and  _102
REMARK   38  A    between atoms: _102  and  _103
REMARK   39  A    between atoms: _102  and  _105
REMARK   40  A    between atoms: _105  and  _106
REMARK   41  A    between atoms: _106  and  _107
REMARK   42  A    between atoms: _110  and  _112
REMARK   43  A    between atoms: _112  and  _113
REMARK   44  A    between atoms: _112  and  _115
REMARK   45  A    between atoms: _115  and  _116
REMARK   46  A    between atoms: _122  and  _124
REMARK   47  A    between atoms: _124  and  _125
REMARK   48  A    between atoms: _127  and  _129
REMARK   49  A    between atoms: _129  and  _130
REMARK   50  A    between atoms: _132  and  _134
REMARK   51  A    between atoms: _134  and  _135
REMARK   52  A    between atoms: _138  and  _140
REMARK   53  A    between atoms: _140  and  _141
REMARK   54  A    between atoms: _140  and  _143
REMARK   55  A    between atoms: _143  and  _144
REMARK   56  A    between atoms: _144  and  _145
REMARK   57  A    between atoms: _145  and  _146
REMARK   58  A    between atoms: _146  and  _147
REMARK   59  A    between atoms: _151  and  _153
REMARK   60  A    between atoms: _153  and  _154
REMARK   61  A    between atoms: _153  and  _156
REMARK   62  A    between atoms: _156  and  _157
REMARK   63  A    between atoms: _157  and  _158
REMARK   64  A    between atoms: _160  and  _162
REMARK   65  A    between atoms: _162  and  _163
REMARK   66  A    between atoms: _162  and  _165
REMARK   67  A    between atoms: _165  and  _166
REMARK   68  A    between atoms: _171  and  _172
REMARK   69  A    between atoms: _174  and  _176
REMARK   70  A    between atoms: _176  and  _177
REMARK   71  A    between atoms: _176  and  _179
REMARK   72  A    between atoms: _179  and  _180
REMARK   73  A    between atoms: _183  and  _185
REMARK   74  A    between atoms: _185  and  _186
REMARK   75  A    between atoms: _185  and  _188
REMARK   76  A    between atoms: _188  and  _189
REMARK   77  A    between atoms: _195  and  _197
REMARK   78  A    between atoms: _197  and  _198
REMARK   79  A    between atoms: _197  and  _200
REMARK   80  A    between atoms: _200  and  _201
REMARK   81  A    between atoms: _206  and  _207
REMARK   82  A    between atoms: _209  and  _211
REMARK   83  A    between atoms: _211  and  _212
REMARK   84  A    between atoms: _214  and  _216
REMARK   85  A    between atoms: _216  and  _217
REMARK   86  A    between atoms: _219  and  _221
REMARK   87  A    between atoms: _221  and  _222
REMARK   88  A    between atoms: _221  and  _224
REMARK   89  A    between atoms: _224  and  _225
REMARK   90  A    between atoms: _235  and  _237
REMARK   91  A    between atoms: _237  and  _238
REMARK   92  A    between atoms: _237  and  _240
REMARK   93  A    between atoms: _240  and  _241
REMARK   94  A    between atoms: _246  and  _248
REMARK   95  A    between atoms: _248  and  _249
REMARK   96  A    between atoms: _248  and  _251
REMARK   97  A    between atoms: _251  and  _252
REMARK   98  A    between atoms: _257  and  _258
REMARK   99  A    between atoms: _260  and  _262
REMARK  100  A    between atoms: _262  and  _263
REMARK  101  A    between atoms: _262  and  _265
REMARK  102  A    between atoms: _265  and  _266
REMARK  103  A    between atoms: _271  and  _272
REMARK  104  A    between atoms: _274  and  _276
REMARK  105  A    between atoms: _276  and  _277
REMARK  106  A    between atoms: _276  and  _279
REMARK  107  A    between atoms: _279  and  _280
REMARK  108  A    between atoms: _280  and  _281
REMARK  109  A    between atoms: _281  and  _282
REMARK  110  A    between atoms: _291  and  _293
REMARK  111  A    between atoms: _293  and  _294
REMARK  112  A    between atoms: _293  and  _296
REMARK  113  A    between atoms: _296  and  _297
REMARK  114  A    between atoms: _297  and  _298
REMARK  115  A    between atoms: _298  and  _299
REMARK  116  A    between atoms: _299  and  _300
REMARK  117  A    between atoms: _304  and  _306
REMARK  118  A    between atoms: _306  and  _307
REMARK  119  A    between atoms: _306  and  _309
REMARK  120  A    between atoms: _309  and  _310
REMARK  121  A    between atoms: _310  and  _311
REMARK  122  A    between atoms: _314  and  _316
REMARK  123  A    between atoms: _316  and  _317
REMARK  124  A    between atoms: _316  and  _319
REMARK  125  A    between atoms: _322  and  _324
REMARK  126  A    between atoms: _324  and  _325
REMARK  127  A    between atoms: _324  and  _327
REMARK  128  A    between atoms: _327  and  _328
REMARK  129  A    between atoms: _338  and  _340
REMARK  130  A    between atoms: _340  and  _341
REMARK  131  A    between atoms: _340  and  _343
REMARK  132  A    between atoms: _343  and  _344
REMARK  133  A    between atoms: _344  and  _345
REMARK                            x       y       z     vdW  Elec       q    Type
REMARK                         _______ _______ _______ _____ _____    ______ ____
ROOT
ATOM      1  O   HOH     1      21.919 -15.397  16.090  0.00  0.00    +0.000 OA
ENDROOT
TORSDOF 0
