REMARK  Name = ../refined-set-2016/4kyk/4kyk_pocket.pdb
REMARK  162 active torsions:
REMARK  status: ('A' for Active; 'I' for Inactive)
REMARK    1  A    between atoms: _1  and  _3
REMARK    2  A    between atoms: _3  and  _4
REMARK    3  A    between atoms: _3  and  _6
REMARK    4  A    between atoms: _6  and  _7
REMARK    5  A    between atoms: _7  and  _8
REMARK    6  A    between atoms: _8  and  _9
REMARK    7  A    between atoms: _8  and  _10
REMARK    8  A    between atoms: _9  and  ZN_370
REMARK    9  A    between atoms: _13  and  _15
REMARK   10  A    between atoms: _15  and  _16
REMARK   11  A    between atoms: _15  and  _18
REMARK   12  A    between atoms: _18  and  _19
REMARK   13  A    between atoms: _19  and  _20
REMARK   14  A    between atoms: _22  and  _24
REMARK   15  A    between atoms: _24  and  _25
REMARK   16  A    between atoms: _24  and  _27
REMARK   17  A    between atoms: _27  and  _28
REMARK   18  A    between atoms: _31  and  _33
REMARK   19  A    between atoms: _33  and  _34
REMARK   20  A    between atoms: _33  and  _36
REMARK   21  A    between atoms: _36  and  _37
REMARK   22  A    between atoms: _40  and  _42
REMARK   23  A    between atoms: _42  and  _43
REMARK   24  A    between atoms: _42  and  _45
REMARK   25  A    between atoms: _45  and  _46
REMARK   26  A    between atoms: _53  and  _54
REMARK   27  A    between atoms: _59  and  _61
REMARK   28  A    between atoms: _61  and  _62
REMARK   29  A    between atoms: _65  and  _67
REMARK   30  A    between atoms: _67  and  _68
REMARK   31  A    between atoms: _67  and  _70
REMARK   32  A    between atoms: _70  and  _71
REMARK   33  A    between atoms: _71  and  _72
REMARK   34  A    between atoms: _74  and  _76
REMARK   35  A    between atoms: _76  and  _77
REMARK   36  A    between atoms: _76  and  _79
REMARK   37  A    between atoms: _79  and  _80
REMARK   38  A    between atoms: _80  and  _81
REMARK   39  A    between atoms: _81  and  _82
REMARK   40  A    between atoms: _82  and  _83
REMARK   41  A    between atoms: _87  and  _89
REMARK   42  A    between atoms: _89  and  _90
REMARK   43  A    between atoms: _89  and  _92
REMARK   44  A    between atoms: _92  and  _93
REMARK   45  A    between atoms: _99  and  _101
REMARK   46  A    between atoms: _101  and  _102
REMARK   47  A    between atoms: _101  and  _104
REMARK   48  A    between atoms: _104  and  _105
REMARK   49  A    between atoms: _108  and  _110
REMARK   50  A    between atoms: _110  and  _111
REMARK   51  A    between atoms: _110  and  _113
REMARK   52  A    between atoms: _113  and  _114
REMARK   53  A    between atoms: _120  and  _122
REMARK   54  A    between atoms: _122  and  _123
REMARK   55  A    between atoms: _122  and  _125
REMARK   56  A    between atoms: _125  and  _126
REMARK   57  A    between atoms: _129  and  _131
REMARK   58  A    between atoms: _131  and  _132
REMARK   59  A    between atoms: _131  and  _134
REMARK   60  A    between atoms: _134  and  _135
REMARK   61  A    between atoms: _141  and  _143
REMARK   62  A    between atoms: _143  and  _144
REMARK   63  A    between atoms: _143  and  _146
REMARK   64  A    between atoms: _146  and  _147
REMARK   65  A    between atoms: _147  and  _148
REMARK   66  A    between atoms: _151  and  _153
REMARK   67  A    between atoms: _153  and  _154
REMARK   68  A    between atoms: _153  and  _156
REMARK   69  A    between atoms: _156  and  _157
REMARK   70  A    between atoms: _160  and  _162
REMARK   71  A    between atoms: _162  and  _163
REMARK   72  A    between atoms: _162  and  _165
REMARK   73  A    between atoms: _165  and  _166
REMARK   74  A    between atoms: _170  and  ZN_370
REMARK   75  A    between atoms: _171  and  _173
REMARK   76  A    between atoms: _173  and  _174
REMARK   77  A    between atoms: _173  and  _176
REMARK   78  A    between atoms: _179  and  _181
REMARK   79  A    between atoms: _181  and  _182
REMARK   80  A    between atoms: _181  and  _184
REMARK   81  A    between atoms: _184  and  _185
REMARK   82  A    between atoms: _185  and  _186
REMARK   83  A    between atoms: _186  and  _187
REMARK   84  A    between atoms: _187  and  _188
REMARK   85  A    between atoms: _192  and  _194
REMARK   86  A    between atoms: _194  and  _195
REMARK   87  A    between atoms: _194  and  _197
REMARK   88  A    between atoms: _197  and  _198
REMARK   89  A    between atoms: _198  and  _199
REMARK   90  A    between atoms: _199  and  _200
REMARK   91  A    between atoms: _200  and  _201
REMARK   92  A    between atoms: _206  and  _207
REMARK   93  A    between atoms: _212  and  _214
REMARK   94  A    between atoms: _214  and  _215
REMARK   95  A    between atoms: _214  and  _217
REMARK   96  A    between atoms: _217  and  _218
REMARK   97  A    between atoms: _221  and  _223
REMARK   98  A    between atoms: _223  and  _224
REMARK   99  A    between atoms: _223  and  _226
REMARK  100  A    between atoms: _226  and  _227
REMARK  101  A    between atoms: _230  and  _232
REMARK  102  A    between atoms: _232  and  _233
REMARK  103  A    between atoms: _235  and  _237
REMARK  104  A    between atoms: _237  and  _238
REMARK  105  A    between atoms: _237  and  _240
REMARK  106  A    between atoms: _240  and  _241
REMARK  107  A    between atoms: _241  and  _242
REMARK  108  A    between atoms: _242  and  _243
REMARK  109  A    between atoms: _243  and  _244
REMARK  110  A    between atoms: _248  and  _250
REMARK  111  A    between atoms: _250  and  _251
REMARK  112  A    between atoms: _250  and  _253
REMARK  113  A    between atoms: _253  and  _254
REMARK  114  A    between atoms: _254  and  _255
REMARK  115  A    between atoms: _257  and  _259
REMARK  116  A    between atoms: _259  and  _260
REMARK  117  A    between atoms: _259  and  _262
REMARK  118  A    between atoms: _262  and  _263
REMARK  119  A    between atoms: _263  and  _264
REMARK  120  A    between atoms: _264  and  _265
REMARK  121  A    between atoms: _265  and  _266
REMARK  122  A    between atoms: _270  and  _272
REMARK  123  A    between atoms: _272  and  _273
REMARK  124  A    between atoms: _275  and  _277
REMARK  125  A    between atoms: _277  and  _278
REMARK  126  A    between atoms: _277  and  _280
REMARK  127  A    between atoms: _280  and  _281
REMARK  128  A    between atoms: _284  and  _286
REMARK  129  A    between atoms: _286  and  _287
REMARK  130  A    between atoms: _290  and  _292
REMARK  131  A    between atoms: _292  and  _293
REMARK  132  A    between atoms: _292  and  _295
REMARK  133  A    between atoms: _295  and  _296
REMARK  134  A    between atoms: _302  and  _304
REMARK  135  A    between atoms: _304  and  _305
REMARK  136  A    between atoms: _304  and  _307
REMARK  137  A    between atoms: _307  and  _308
REMARK  138  A    between atoms: _318  and  _320
REMARK  139  A    between atoms: _320  and  _321
REMARK  140  A    between atoms: _320  and  _323
REMARK  141  A    between atoms: _323  and  _324
REMARK  142  A    between atoms: _324  and  _325
REMARK  143  A    between atoms: _325  and  _327
REMARK  144  A    between atoms: _327  and  ZN_370
REMARK  145  A    between atoms: _328  and  _330
REMARK  146  A    between atoms: _330  and  _331
REMARK  147  A    between atoms: _330  and  _333
REMARK  148  A    between atoms: _333  and  _334
REMARK  149  A    between atoms: _337  and  _339
REMARK  150  A    between atoms: _339  and  _340
REMARK  151  A    between atoms: _339  and  _342
REMARK  152  A    between atoms: _342  and  _343
REMARK  153  A    between atoms: _346  and  _348
REMARK  154  A    between atoms: _348  and  _349
REMARK  155  A    between atoms: _352  and  _354
REMARK  156  A    between atoms: _354  and  _355
REMARK  157  A    between atoms: _354  and  _357
REMARK  158  A    between atoms: _357  and  _358
REMARK  159  A    between atoms: _361  and  _363
REMARK  160  A    between atoms: _363  and  _364
REMARK  161  A    between atoms: _363  and  _366
REMARK  162  A    between atoms: _366  and  _367
REMARK                            x       y       z     vdW  Elec       q    Type
REMARK                         _______ _______ _______ _____ _____    ______ ____
ROOT
ATOM      1 ZN   UNL     1      21.452   9.327  68.901  0.00  0.00    +0.000 Zn
ENDROOT
BRANCH   1   2
ATOM      2  N   UNL     1      22.895  10.440  70.172  0.00  0.00    +0.000 N 
ATOM      3  C   UNL     1      23.010  10.879  71.468  0.00  0.00    +0.000 A 
ATOM      4  C   UNL     1      23.984  11.817  71.485  0.00  0.00    +0.000 A 
ATOM      5  N   UNL     1      24.444  11.914  70.192  0.00  0.00    +0.000 NA
ATOM      6  C   UNL     1      23.768  11.083  69.421  0.00  0.00    +0.000 A 
BRANCH   4   7
ATOM      7  C   UNL     1      24.549  12.627  72.602  0.00  0.00    +0.000 C 
BRANCH   7   8
ATOM      8  CA  UNL     1      25.572  11.870  73.449  0.00  0.00    +0.000 C 
BRANCH   8   9
ATOM      9  C   UNL     1      24.836  10.773  74.168  0.00  0.00    +0.000 C 
ATOM     10  O   UNL     1      25.008   9.592  73.874  0.00  0.00    +0.000 OA
ENDBRANCH   8   9
BRANCH   8  11
ATOM     11  N   UNL     1      26.671  11.383  72.618  0.00  0.00    +0.000 NA
ATOM     12  H   UNL     1      26.799  10.359  72.487  0.00  0.00    +0.000 HD
ENDBRANCH   8  11
ENDBRANCH   7   8
ENDBRANCH   4   7
ENDBRANCH   1   2
BRANCH   1  13
ATOM     13  O   UNL     1      19.880  10.965  69.351  0.00  0.00    +0.000 OA
BRANCH  13  14
ATOM     14  C   UNL     1      19.014  11.796  69.068  0.00  0.00    +0.000 C 
ATOM     15  O   UNL     1      18.500  11.872  67.940  0.00  0.00    +0.000 OA
BRANCH  14  16
ATOM     16  C   UNL     1      18.575  12.752  70.138  0.00  0.00    +0.000 C 
BRANCH  16  17
ATOM     17  C   UNL     1      19.531  12.773  71.309  0.00  0.00    +0.000 C 
BRANCH  17  18
ATOM     18  CA  UNL     1      19.303  13.973  72.225  0.00  0.00    +0.000 C 
BRANCH  18  19
ATOM     19  C   UNL     1      17.918  13.881  72.825  0.00  0.00    +0.000 C 
ATOM     20  O   UNL     1      17.714  13.220  73.833  0.00  0.00    +0.000 OA
ENDBRANCH  18  19
BRANCH  18  21
ATOM     21  N   UNL     1      20.317  14.054  73.266  0.00  0.00    +0.000 NA
ATOM     22  H   UNL     1      20.872  13.206  73.500  0.00  0.00    +0.000 HD
ENDBRANCH  18  21
ENDBRANCH  17  18
ENDBRANCH  16  17
ENDBRANCH  14  16
ENDBRANCH  13  14
ENDBRANCH   1  13
BRANCH   1  23
ATOM     23  O   UNL     1      21.096   8.208  70.752  0.00  0.00    +0.000 OA
BRANCH  23  24
ATOM     24  C   UNL     1      20.065   7.675  71.159  0.00  0.00    +0.000 C 
BRANCH  24  25
ATOM     25  N   UNL     1      19.042   7.378  70.359  0.00  0.00    +0.000 NA
ATOM     26  H   UNL     1      18.190   6.927  70.750  0.00  0.00    +0.000 HD
ATOM     27  H   UNL     1      19.095   7.597  69.344  0.00  0.00    +0.000 HD
ENDBRANCH  24  25
BRANCH  24  28
ATOM     28  C   UNL     1      19.927   7.296  72.606  0.00  0.00    +0.000 C 
BRANCH  28  29
ATOM     29  C   UNL     1      20.354   5.855  72.865  0.00  0.00    +0.000 C 
BRANCH  29  30
ATOM     30  CA  UNL     1      20.566   5.579  74.347  0.00  0.00    +0.000 C 
BRANCH  30  31
ATOM     31  C   UNL     1      21.830   6.293  74.790  0.00  0.00    +0.000 C 
ATOM     32  O   UNL     1      21.780   7.393  75.347  0.00  0.00    +0.000 OA
ENDBRANCH  30  31
BRANCH  30  33
ATOM     33  N   UNL     1      19.360   5.942  75.080  0.00  0.00    +0.000 NA
ATOM     34  H   UNL     1      19.301   6.858  75.569  0.00  0.00    +0.000 HD
ENDBRANCH  30  33
ENDBRANCH  29  30
ENDBRANCH  28  29
ENDBRANCH  24  28
ENDBRANCH  23  24
ENDBRANCH   1  23
TORSDOF 20
REMARK  Name = ../refined-set-2016/4kyk/4kyk_pocket.pdb
REMARK  162 active torsions:
REMARK  status: ('A' for Active; 'I' for Inactive)
REMARK    1  A    between atoms: _1  and  _3
REMARK    2  A    between atoms: _3  and  _4
REMARK    3  A    between atoms: _3  and  _6
REMARK    4  A    between atoms: _6  and  _7
REMARK    5  A    between atoms: _7  and  _8
REMARK    6  A    between atoms: _8  and  _9
REMARK    7  A    between atoms: _8  and  _10
REMARK    8  A    between atoms: _9  and  ZN_370
REMARK    9  A    between atoms: _13  and  _15
REMARK   10  A    between atoms: _15  and  _16
REMARK   11  A    between atoms: _15  and  _18
REMARK   12  A    between atoms: _18  and  _19
REMARK   13  A    between atoms: _19  and  _20
REMARK   14  A    between atoms: _22  and  _24
REMARK   15  A    between atoms: _24  and  _25
REMARK   16  A    between atoms: _24  and  _27
REMARK   17  A    between atoms: _27  and  _28
REMARK   18  A    between atoms: _31  and  _33
REMARK   19  A    between atoms: _33  and  _34
REMARK   20  A    between atoms: _33  and  _36
REMARK   21  A    between atoms: _36  and  _37
REMARK   22  A    between atoms: _40  and  _42
REMARK   23  A    between atoms: _42  and  _43
REMARK   24  A    between atoms: _42  and  _45
REMARK   25  A    between atoms: _45  and  _46
REMARK   26  A    between atoms: _53  and  _54
REMARK   27  A    between atoms: _59  and  _61
REMARK   28  A    between atoms: _61  and  _62
REMARK   29  A    between atoms: _65  and  _67
REMARK   30  A    between atoms: _67  and  _68
REMARK   31  A    between atoms: _67  and  _70
REMARK   32  A    between atoms: _70  and  _71
REMARK   33  A    between atoms: _71  and  _72
REMARK   34  A    between atoms: _74  and  _76
REMARK   35  A    between atoms: _76  and  _77
REMARK   36  A    between atoms: _76  and  _79
REMARK   37  A    between atoms: _79  and  _80
REMARK   38  A    between atoms: _80  and  _81
REMARK   39  A    between atoms: _81  and  _82
REMARK   40  A    between atoms: _82  and  _83
REMARK   41  A    between atoms: _87  and  _89
REMARK   42  A    between atoms: _89  and  _90
REMARK   43  A    between atoms: _89  and  _92
REMARK   44  A    between atoms: _92  and  _93
REMARK   45  A    between atoms: _99  and  _101
REMARK   46  A    between atoms: _101  and  _102
REMARK   47  A    between atoms: _101  and  _104
REMARK   48  A    between atoms: _104  and  _105
REMARK   49  A    between atoms: _108  and  _110
REMARK   50  A    between atoms: _110  and  _111
REMARK   51  A    between atoms: _110  and  _113
REMARK   52  A    between atoms: _113  and  _114
REMARK   53  A    between atoms: _120  and  _122
REMARK   54  A    between atoms: _122  and  _123
REMARK   55  A    between atoms: _122  and  _125
REMARK   56  A    between atoms: _125  and  _126
REMARK   57  A    between atoms: _129  and  _131
REMARK   58  A    between atoms: _131  and  _132
REMARK   59  A    between atoms: _131  and  _134
REMARK   60  A    between atoms: _134  and  _135
REMARK   61  A    between atoms: _141  and  _143
REMARK   62  A    between atoms: _143  and  _144
REMARK   63  A    between atoms: _143  and  _146
REMARK   64  A    between atoms: _146  and  _147
REMARK   65  A    between atoms: _147  and  _148
REMARK   66  A    between atoms: _151  and  _153
REMARK   67  A    between atoms: _153  and  _154
REMARK   68  A    between atoms: _153  and  _156
REMARK   69  A    between atoms: _156  and  _157
REMARK   70  A    between atoms: _160  and  _162
REMARK   71  A    between atoms: _162  and  _163
REMARK   72  A    between atoms: _162  and  _165
REMARK   73  A    between atoms: _165  and  _166
REMARK   74  A    between atoms: _170  and  ZN_370
REMARK   75  A    between atoms: _171  and  _173
REMARK   76  A    between atoms: _173  and  _174
REMARK   77  A    between atoms: _173  and  _176
REMARK   78  A    between atoms: _179  and  _181
REMARK   79  A    between atoms: _181  and  _182
REMARK   80  A    between atoms: _181  and  _184
REMARK   81  A    between atoms: _184  and  _185
REMARK   82  A    between atoms: _185  and  _186
REMARK   83  A    between atoms: _186  and  _187
REMARK   84  A    between atoms: _187  and  _188
REMARK   85  A    between atoms: _192  and  _194
REMARK   86  A    between atoms: _194  and  _195
REMARK   87  A    between atoms: _194  and  _197
REMARK   88  A    between atoms: _197  and  _198
REMARK   89  A    between atoms: _198  and  _199
REMARK   90  A    between atoms: _199  and  _200
REMARK   91  A    between atoms: _200  and  _201
REMARK   92  A    between atoms: _206  and  _207
REMARK   93  A    between atoms: _212  and  _214
REMARK   94  A    between atoms: _214  and  _215
REMARK   95  A    between atoms: _214  and  _217
REMARK   96  A    between atoms: _217  and  _218
REMARK   97  A    between atoms: _221  and  _223
REMARK   98  A    between atoms: _223  and  _224
REMARK   99  A    between atoms: _223  and  _226
REMARK  100  A    between atoms: _226  and  _227
REMARK  101  A    between atoms: _230  and  _232
REMARK  102  A    between atoms: _232  and  _233
REMARK  103  A    between atoms: _235  and  _237
REMARK  104  A    between atoms: _237  and  _238
REMARK  105  A    between atoms: _237  and  _240
REMARK  106  A    between atoms: _240  and  _241
REMARK  107  A    between atoms: _241  and  _242
REMARK  108  A    between atoms: _242  and  _243
REMARK  109  A    between atoms: _243  and  _244
REMARK  110  A    between atoms: _248  and  _250
REMARK  111  A    between atoms: _250  and  _251
REMARK  112  A    between atoms: _250  and  _253
REMARK  113  A    between atoms: _253  and  _254
REMARK  114  A    between atoms: _254  and  _255
REMARK  115  A    between atoms: _257  and  _259
REMARK  116  A    between atoms: _259  and  _260
REMARK  117  A    between atoms: _259  and  _262
REMARK  118  A    between atoms: _262  and  _263
REMARK  119  A    between atoms: _263  and  _264
REMARK  120  A    between atoms: _264  and  _265
REMARK  121  A    between atoms: _265  and  _266
REMARK  122  A    between atoms: _270  and  _272
REMARK  123  A    between atoms: _272  and  _273
REMARK  124  A    between atoms: _275  and  _277
REMARK  125  A    between atoms: _277  and  _278
REMARK  126  A    between atoms: _277  and  _280
REMARK  127  A    between atoms: _280  and  _281
REMARK  128  A    between atoms: _284  and  _286
REMARK  129  A    between atoms: _286  and  _287
REMARK  130  A    between atoms: _290  and  _292
REMARK  131  A    between atoms: _292  and  _293
REMARK  132  A    between atoms: _292  and  _295
REMARK  133  A    between atoms: _295  and  _296
REMARK  134  A    between atoms: _302  and  _304
REMARK  135  A    between atoms: _304  and  _305
REMARK  136  A    between atoms: _304  and  _307
REMARK  137  A    between atoms: _307  and  _308
REMARK  138  A    between atoms: _318  and  _320
REMARK  139  A    between atoms: _320  and  _321
REMARK  140  A    between atoms: _320  and  _323
REMARK  141  A    between atoms: _323  and  _324
REMARK  142  A    between atoms: _324  and  _325
REMARK  143  A    between atoms: _325  and  _327
REMARK  144  A    between atoms: _327  and  ZN_370
REMARK  145  A    between atoms: _328  and  _330
REMARK  146  A    between atoms: _330  and  _331
REMARK  147  A    between atoms: _330  and  _333
REMARK  148  A    between atoms: _333  and  _334
REMARK  149  A    between atoms: _337  and  _339
REMARK  150  A    between atoms: _339  and  _340
REMARK  151  A    between atoms: _339  and  _342
REMARK  152  A    between atoms: _342  and  _343
REMARK  153  A    between atoms: _346  and  _348
REMARK  154  A    between atoms: _348  and  _349
REMARK  155  A    between atoms: _352  and  _354
REMARK  156  A    between atoms: _354  and  _355
REMARK  157  A    between atoms: _354  and  _357
REMARK  158  A    between atoms: _357  and  _358
REMARK  159  A    between atoms: _361  and  _363
REMARK  160  A    between atoms: _363  and  _364
REMARK  161  A    between atoms: _363  and  _366
REMARK  162  A    between atoms: _366  and  _367
REMARK                            x       y       z     vdW  Elec       q    Type
REMARK                         _______ _______ _______ _____ _____    ______ ____
ROOT
ATOM      1  CA  MET A   1      25.956   7.073  71.358  0.00  0.00    +0.134 C 
ENDROOT
BRANCH   1   2
ATOM      2  N   MET A   1      25.351   7.180  72.677  0.00  0.00    -0.239 NA
ATOM      3  H   MET A   1      25.251   8.110  73.131  0.00  0.00    +0.142 HD
ENDBRANCH   1   2
BRANCH   1   4
ATOM      4  C   MET A   1      27.474   7.134  71.406  0.00  0.00    +0.224 C 
ATOM      5  O   MET A   1      28.059   7.994  72.066  0.00  0.00    -0.287 OA
ENDBRANCH   1   4
BRANCH   1   6
ATOM      6  CB  MET A   1      25.397   8.130  70.401  0.00  0.00    +0.037 C 
BRANCH   6   7
ATOM      7  CG  MET A   1      25.897   7.983  68.952  0.00  0.00    +0.059 C 
BRANCH   7   8
ATOM      8  SD  MET A   1      27.529   8.646  68.657  0.00  0.00    -0.139 S 
ATOM      9  CE  MET A   1      27.111  10.113  67.691  0.00  0.00    +0.069 C 
ENDBRANCH   7   8
ENDBRANCH   6   7
ENDBRANCH   1   6
TORSDOF 5
REMARK  Name = ../refined-set-2016/4kyk/4kyk_pocket.pdb
REMARK  162 active torsions:
REMARK  status: ('A' for Active; 'I' for Inactive)
REMARK    1  A    between atoms: _1  and  _3
REMARK    2  A    between atoms: _3  and  _4
REMARK    3  A    between atoms: _3  and  _6
REMARK    4  A    between atoms: _6  and  _7
REMARK    5  A    between atoms: _7  and  _8
REMARK    6  A    between atoms: _8  and  _9
REMARK    7  A    between atoms: _8  and  _10
REMARK    8  A    between atoms: _9  and  ZN_370
REMARK    9  A    between atoms: _13  and  _15
REMARK   10  A    between atoms: _15  and  _16
REMARK   11  A    between atoms: _15  and  _18
REMARK   12  A    between atoms: _18  and  _19
REMARK   13  A    between atoms: _19  and  _20
REMARK   14  A    between atoms: _22  and  _24
REMARK   15  A    between atoms: _24  and  _25
REMARK   16  A    between atoms: _24  and  _27
REMARK   17  A    between atoms: _27  and  _28
REMARK   18  A    between atoms: _31  and  _33
REMARK   19  A    between atoms: _33  and  _34
REMARK   20  A    between atoms: _33  and  _36
REMARK   21  A    between atoms: _36  and  _37
REMARK   22  A    between atoms: _40  and  _42
REMARK   23  A    between atoms: _42  and  _43
REMARK   24  A    between atoms: _42  and  _45
REMARK   25  A    between atoms: _45  and  _46
REMARK   26  A    between atoms: _53  and  _54
REMARK   27  A    between atoms: _59  and  _61
REMARK   28  A    between atoms: _61  and  _62
REMARK   29  A    between atoms: _65  and  _67
REMARK   30  A    between atoms: _67  and  _68
REMARK   31  A    between atoms: _67  and  _70
REMARK   32  A    between atoms: _70  and  _71
REMARK   33  A    between atoms: _71  and  _72
REMARK   34  A    between atoms: _74  and  _76
REMARK   35  A    between atoms: _76  and  _77
REMARK   36  A    between atoms: _76  and  _79
REMARK   37  A    between atoms: _79  and  _80
REMARK   38  A    between atoms: _80  and  _81
REMARK   39  A    between atoms: _81  and  _82
REMARK   40  A    between atoms: _82  and  _83
REMARK   41  A    between atoms: _87  and  _89
REMARK   42  A    between atoms: _89  and  _90
REMARK   43  A    between atoms: _89  and  _92
REMARK   44  A    between atoms: _92  and  _93
REMARK   45  A    between atoms: _99  and  _101
REMARK   46  A    between atoms: _101  and  _102
REMARK   47  A    between atoms: _101  and  _104
REMARK   48  A    between atoms: _104  and  _105
REMARK   49  A    between atoms: _108  and  _110
REMARK   50  A    between atoms: _110  and  _111
REMARK   51  A    between atoms: _110  and  _113
REMARK   52  A    between atoms: _113  and  _114
REMARK   53  A    between atoms: _120  and  _122
REMARK   54  A    between atoms: _122  and  _123
REMARK   55  A    between atoms: _122  and  _125
REMARK   56  A    between atoms: _125  and  _126
REMARK   57  A    between atoms: _129  and  _131
REMARK   58  A    between atoms: _131  and  _132
REMARK   59  A    between atoms: _131  and  _134
REMARK   60  A    between atoms: _134  and  _135
REMARK   61  A    between atoms: _141  and  _143
REMARK   62  A    between atoms: _143  and  _144
REMARK   63  A    between atoms: _143  and  _146
REMARK   64  A    between atoms: _146  and  _147
REMARK   65  A    between atoms: _147  and  _148
REMARK   66  A    between atoms: _151  and  _153
REMARK   67  A    between atoms: _153  and  _154
REMARK   68  A    between atoms: _153  and  _156
REMARK   69  A    between atoms: _156  and  _157
REMARK   70  A    between atoms: _160  and  _162
REMARK   71  A    between atoms: _162  and  _163
REMARK   72  A    between atoms: _162  and  _165
REMARK   73  A    between atoms: _165  and  _166
REMARK   74  A    between atoms: _170  and  ZN_370
REMARK   75  A    between atoms: _171  and  _173
REMARK   76  A    between atoms: _173  and  _174
REMARK   77  A    between atoms: _173  and  _176
REMARK   78  A    between atoms: _179  and  _181
REMARK   79  A    between atoms: _181  and  _182
REMARK   80  A    between atoms: _181  and  _184
REMARK   81  A    between atoms: _184  and  _185
REMARK   82  A    between atoms: _185  and  _186
REMARK   83  A    between atoms: _186  and  _187
REMARK   84  A    between atoms: _187  and  _188
REMARK   85  A    between atoms: _192  and  _194
REMARK   86  A    between atoms: _194  and  _195
REMARK   87  A    between atoms: _194  and  _197
REMARK   88  A    between atoms: _197  and  _198
REMARK   89  A    between atoms: _198  and  _199
REMARK   90  A    between atoms: _199  and  _200
REMARK   91  A    between atoms: _200  and  _201
REMARK   92  A    between atoms: _206  and  _207
REMARK   93  A    between atoms: _212  and  _214
REMARK   94  A    between atoms: _214  and  _215
REMARK   95  A    between atoms: _214  and  _217
REMARK   96  A    between atoms: _217  and  _218
REMARK   97  A    between atoms: _221  and  _223
REMARK   98  A    between atoms: _223  and  _224
REMARK   99  A    between atoms: _223  and  _226
REMARK  100  A    between atoms: _226  and  _227
REMARK  101  A    between atoms: _230  and  _232
REMARK  102  A    between atoms: _232  and  _233
REMARK  103  A    between atoms: _235  and  _237
REMARK  104  A    between atoms: _237  and  _238
REMARK  105  A    between atoms: _237  and  _240
REMARK  106  A    between atoms: _240  and  _241
REMARK  107  A    between atoms: _241  and  _242
REMARK  108  A    between atoms: _242  and  _243
REMARK  109  A    between atoms: _243  and  _244
REMARK  110  A    between atoms: _248  and  _250
REMARK  111  A    between atoms: _250  and  _251
REMARK  112  A    between atoms: _250  and  _253
REMARK  113  A    between atoms: _253  and  _254
REMARK  114  A    between atoms: _254  and  _255
REMARK  115  A    between atoms: _257  and  _259
REMARK  116  A    between atoms: _259  and  _260
REMARK  117  A    between atoms: _259  and  _262
REMARK  118  A    between atoms: _262  and  _263
REMARK  119  A    between atoms: _263  and  _264
REMARK  120  A    between atoms: _264  and  _265
REMARK  121  A    between atoms: _265  and  _266
REMARK  122  A    between atoms: _270  and  _272
REMARK  123  A    between atoms: _272  and  _273
REMARK  124  A    between atoms: _275  and  _277
REMARK  125  A    between atoms: _277  and  _278
REMARK  126  A    between atoms: _277  and  _280
REMARK  127  A    between atoms: _280  and  _281
REMARK  128  A    between atoms: _284  and  _286
REMARK  129  A    between atoms: _286  and  _287
REMARK  130  A    between atoms: _290  and  _292
REMARK  131  A    between atoms: _292  and  _293
REMARK  132  A    between atoms: _292  and  _295
REMARK  133  A    between atoms: _295  and  _296
REMARK  134  A    between atoms: _302  and  _304
REMARK  135  A    between atoms: _304  and  _305
REMARK  136  A    between atoms: _304  and  _307
REMARK  137  A    between atoms: _307  and  _308
REMARK  138  A    between atoms: _318  and  _320
REMARK  139  A    between atoms: _320  and  _321
REMARK  140  A    between atoms: _320  and  _323
REMARK  141  A    between atoms: _323  and  _324
REMARK  142  A    between atoms: _324  and  _325
REMARK  143  A    between atoms: _325  and  _327
REMARK  144  A    between atoms: _327  and  ZN_370
REMARK  145  A    between atoms: _328  and  _330
REMARK  146  A    between atoms: _330  and  _331
REMARK  147  A    between atoms: _330  and  _333
REMARK  148  A    between atoms: _333  and  _334
REMARK  149  A    between atoms: _337  and  _339
REMARK  150  A    between atoms: _339  and  _340
REMARK  151  A    between atoms: _339  and  _342
REMARK  152  A    between atoms: _342  and  _343
REMARK  153  A    between atoms: _346  and  _348
REMARK  154  A    between atoms: _348  and  _349
REMARK  155  A    between atoms: _352  and  _354
REMARK  156  A    between atoms: _354  and  _355
REMARK  157  A    between atoms: _354  and  _357
REMARK  158  A    between atoms: _357  and  _358
REMARK  159  A    between atoms: _361  and  _363
REMARK  160  A    between atoms: _363  and  _364
REMARK  161  A    between atoms: _363  and  _366
REMARK  162  A    between atoms: _366  and  _367
REMARK                            x       y       z     vdW  Elec       q    Type
REMARK                         _______ _______ _______ _____ _____    ______ ____
ROOT
ATOM      1  C   PRO A   4      23.286   9.231  52.220  0.00  0.00    +0.241 C 
ATOM      2  N   ALA A   5      22.327  10.098  52.513  0.00  0.00    -0.297 N 
ATOM      3  H   ALA A   5      21.433   9.762  52.924  0.00  0.00    +0.150 HD
ATOM      4  O   PRO A   4      24.392   9.573  51.810  0.00  0.00    -0.273 OA
ENDROOT
BRANCH   1  11
ATOM      5  C   PHE A   3      22.466   7.888  54.821  0.00  0.00    +0.244 C 
ATOM      6  O   PHE A   3      23.419   8.620  55.054  0.00  0.00    -0.273 OA
ATOM      7  N   PRO A   4      22.174   7.441  53.582  0.00  0.00    -0.272 N 
ATOM      8  CD  PRO A   4      21.137   6.454  53.265  0.00  0.00    +0.094 C 
ATOM      9  CG  PRO A   4      20.876   6.716  51.821  0.00  0.00    +0.024 C 
ATOM     10  CB  PRO A   4      22.102   7.264  51.229  0.00  0.00    +0.031 C 
ATOM     11  CA  PRO A   4      22.979   7.749  52.398  0.00  0.00    +0.152 C 
BRANCH   5  12
ATOM     12  CA  PHE A   3      21.569   7.437  55.963  0.00  0.00    +0.153 C 
BRANCH  12  14
ATOM     13  C   ASP A   2      20.938   5.114  56.406  0.00  0.00    +0.241 C 
ATOM     14  N   PHE A   3      21.871   6.059  56.314  0.00  0.00    -0.297 N 
ATOM     15  H   PHE A   3      22.861   5.800  56.502  0.00  0.00    +0.150 HD
ATOM     16  O   ASP A   2      19.742   5.309  56.177  0.00  0.00    -0.273 OA
BRANCH  13  17
ATOM     17  CA  ASP A   2      21.440   3.751  56.858  0.00  0.00    +0.160 C 
BRANCH  17  20
ATOM     18  C   LEU A   1      20.757   2.999  59.055  0.00  0.00    +0.238 C 
ATOM     19  O   LEU A   1      21.814   3.362  59.560  0.00  0.00    -0.274 OA
ATOM     20  N   ASP A   2      20.481   3.142  57.765  0.00  0.00    -0.297 N 
ATOM     21  H   ASP A   2      19.565   2.814  57.397  0.00  0.00    +0.150 HD
BRANCH  18  22
ATOM     22  CA  LEU A   1      19.686   2.365  59.906  0.00  0.00    +0.145 C 
BRANCH  22  23
ATOM     23  N   LEU A   1      20.305   1.310  60.704  0.00  0.00    -0.238 NA
ATOM     24  H   LEU A   1      21.045   1.553  61.392  0.00  0.00    +0.142 HD
ENDBRANCH  22  23
BRANCH  22  25
ATOM     25  CB  LEU A   1      19.068   3.460  60.771  0.00  0.00    +0.026 C 
BRANCH  25  26
ATOM     26  CG  LEU A   1      17.912   3.199  61.721  0.00  0.00    +0.002 C 
ATOM     27  CD2 LEU A   1      18.451   2.607  63.023  0.00  0.00    +0.000 C 
ATOM     28  CD1 LEU A   1      17.178   4.525  61.976  0.00  0.00    +0.000 C 
ENDBRANCH  25  26
ENDBRANCH  22  25
ENDBRANCH  18  22
ENDBRANCH  17  20
BRANCH  17  29
ATOM     29  CB  ASP A   2      21.738   2.846  55.662  0.00  0.00    +0.143 C 
BRANCH  29  30
ATOM     30  CG  ASP A   2      22.253   1.482  56.085  0.00  0.00    +0.367 C 
ATOM     31  OD2 ASP A   2      23.398   1.382  56.592  0.00  0.00    -0.246 OA
ATOM     32  OD1 ASP A   2      21.505   0.509  55.914  0.00  0.00    -0.246 OA
ENDBRANCH  29  30
ENDBRANCH  17  29
ENDBRANCH  13  17
ENDBRANCH  12  14
BRANCH  12  33
ATOM     33  CB  PHE A   3      21.803   8.339  57.175  0.00  0.00    +0.055 C 
BRANCH  33  34
ATOM     34  CG  PHE A   3      20.802   8.141  58.276  0.00  0.00    -0.020 A 
ATOM     35  CD2 PHE A   3      21.089   7.328  59.359  0.00  0.00    -0.004 A 
ATOM     36  CE2 PHE A   3      20.158   7.152  60.376  0.00  0.00    -0.000 A 
ATOM     37  CZ  PHE A   3      18.923   7.789  60.303  0.00  0.00    -0.000 A 
ATOM     38  CE1 PHE A   3      18.636   8.594  59.230  0.00  0.00    -0.000 A 
ATOM     39  CD1 PHE A   3      19.571   8.769  58.227  0.00  0.00    -0.004 A 
ENDBRANCH  33  34
ENDBRANCH  12  33
ENDBRANCH   5  12
ENDBRANCH   1  11
BRANCH   2  40
ATOM     40  CA  ALA A   5      22.523  11.530  52.260  0.00  0.00    +0.149 C 
ATOM     41  CB  ALA A   5      21.247  12.307  52.557  0.00  0.00    +0.031 C 
BRANCH  40  42
ATOM     42  C   ALA A   5      23.687  12.081  53.076  0.00  0.00    +0.241 C 
ATOM     43  N   MET A   6      23.891  11.496  54.255  0.00  0.00    -0.297 N 
ATOM     44  H   MET A   6      23.300  10.684  54.524  0.00  0.00    +0.150 HD
ATOM     45  O   ALA A   5      24.383  13.009  52.649  0.00  0.00    -0.273 OA
BRANCH  43  46
ATOM     46  CA  MET A   6      24.920  11.961  55.182  0.00  0.00    +0.149 C 
BRANCH  46  47
ATOM     47  C   MET A   6      26.053  10.940  55.368  0.00  0.00    +0.241 C 
ATOM     48  O   MET A   6      26.969  11.181  56.141  0.00  0.00    -0.273 OA
ATOM     49  N   LYS A   7      26.008   9.834  54.623  0.00  0.00    -0.297 N 
ATOM     50  H   LYS A   7      25.183   9.685  54.008  0.00  0.00    +0.150 HD
BRANCH  49  51
ATOM     51  CA  LYS A   7      27.069   8.816  54.630  0.00  0.00    +0.149 C 
BRANCH  51  52
ATOM     52  C   LYS A   7      27.415   8.335  56.026  0.00  0.00    +0.241 C 
ATOM     53  N   PHE A   8      26.402   7.965  56.796  0.00  0.00    -0.298 N 
ATOM     54  H   PHE A   8      25.430   8.215  56.523  0.00  0.00    +0.150 HD
ATOM     55  O   LYS A   7      28.576   8.329  56.405  0.00  0.00    -0.273 OA
BRANCH  53  56
ATOM     56  CA  PHE A   8      26.635   7.213  58.018  0.00  0.00    +0.141 C 
BRANCH  56  57
ATOM     57  C   PHE A   8      25.576   6.135  58.252  0.00  0.00    +0.227 C 
ATOM     58  O   PHE A   8      24.504   6.141  57.630  0.00  0.00    -0.286 OA
ENDBRANCH  56  57
BRANCH  56  59
ATOM     59  CB  PHE A   8      26.770   8.146  59.235  0.00  0.00    +0.054 C 
BRANCH  59  60
ATOM     60  CG  PHE A   8      25.475   8.773  59.684  0.00  0.00    -0.020 A 
ATOM     61  CD2 PHE A   8      24.740   8.217  60.712  0.00  0.00    -0.004 A 
ATOM     62  CE2 PHE A   8      23.563   8.800  61.129  0.00  0.00    -0.000 A 
ATOM     63  CZ  PHE A   8      23.116   9.950  60.523  0.00  0.00    -0.000 A 
ATOM     64  CE1 PHE A   8      23.836  10.512  59.516  0.00  0.00    -0.000 A 
ATOM     65  CD1 PHE A   8      25.006   9.931  59.101  0.00  0.00    -0.004 A 
ENDBRANCH  59  60
ENDBRANCH  56  59
ENDBRANCH  53  56
ENDBRANCH  51  52
BRANCH  51  66
ATOM     66  CB  LYS A   7      28.348   9.316  53.933  0.00  0.00    +0.029 C 
BRANCH  66  67
ATOM     67  CG  LYS A   7      28.264   9.342  52.406  0.00  0.00    +0.000 C 
BRANCH  67  68
ATOM     68  CD  LYS A   7      28.692  10.689  51.861  0.00  0.00    -0.024 C 
BRANCH  68  69
ATOM     69  CE  LYS A   7      28.512  10.762  50.335  0.00  0.00    -0.086 C 
BRANCH  69  70
ATOM     70  NZ  LYS A   7      28.117  12.134  49.892  0.00  0.00    +0.380 N 
ATOM     71  HZ1 LYS A   7      27.217  12.397  50.342  0.00  0.00    -0.089 HD
ATOM     72  HZ2 LYS A   7      28.855  12.812  50.169  0.00  0.00    -0.089 HD
ATOM     73  HZ3 LYS A   7      28.005  12.144  48.858  0.00  0.00    -0.089 HD
ENDBRANCH  69  70
ENDBRANCH  68  69
ENDBRANCH  67  68
ENDBRANCH  66  67
ENDBRANCH  51  66
ENDBRANCH  49  51
ENDBRANCH  46  47
BRANCH  46  74
ATOM     74  CB  MET A   6      24.318  12.420  56.532  0.00  0.00    +0.041 C 
BRANCH  74  75
ATOM     75  CG  MET A   6      23.844  13.909  56.599  0.00  0.00    +0.060 C 
BRANCH  75  76
ATOM     76  SD  MET A   6      25.134  15.169  56.271  0.00  0.00    -0.139 S 
ATOM     77  CE  MET A   6      26.396  14.730  57.481  0.00  0.00    +0.069 C 
ENDBRANCH  75  76
ENDBRANCH  74  75
ENDBRANCH  46  74
ENDBRANCH  43  46
ENDBRANCH  40  42
ENDBRANCH   2  40
TORSDOF 31
REMARK  Name = ../refined-set-2016/4kyk/4kyk_pocket.pdb
REMARK  162 active torsions:
REMARK  status: ('A' for Active; 'I' for Inactive)
REMARK    1  A    between atoms: _1  and  _3
REMARK    2  A    between atoms: _3  and  _4
REMARK    3  A    between atoms: _3  and  _6
REMARK    4  A    between atoms: _6  and  _7
REMARK    5  A    between atoms: _7  and  _8
REMARK    6  A    between atoms: _8  and  _9
REMARK    7  A    between atoms: _8  and  _10
REMARK    8  A    between atoms: _9  and  ZN_370
REMARK    9  A    between atoms: _13  and  _15
REMARK   10  A    between atoms: _15  and  _16
REMARK   11  A    between atoms: _15  and  _18
REMARK   12  A    between atoms: _18  and  _19
REMARK   13  A    between atoms: _19  and  _20
REMARK   14  A    between atoms: _22  and  _24
REMARK   15  A    between atoms: _24  and  _25
REMARK   16  A    between atoms: _24  and  _27
REMARK   17  A    between atoms: _27  and  _28
REMARK   18  A    between atoms: _31  and  _33
REMARK   19  A    between atoms: _33  and  _34
REMARK   20  A    between atoms: _33  and  _36
REMARK   21  A    between atoms: _36  and  _37
REMARK   22  A    between atoms: _40  and  _42
REMARK   23  A    between atoms: _42  and  _43
REMARK   24  A    between atoms: _42  and  _45
REMARK   25  A    between atoms: _45  and  _46
REMARK   26  A    between atoms: _53  and  _54
REMARK   27  A    between atoms: _59  and  _61
REMARK   28  A    between atoms: _61  and  _62
REMARK   29  A    between atoms: _65  and  _67
REMARK   30  A    between atoms: _67  and  _68
REMARK   31  A    between atoms: _67  and  _70
REMARK   32  A    between atoms: _70  and  _71
REMARK   33  A    between atoms: _71  and  _72
REMARK   34  A    between atoms: _74  and  _76
REMARK   35  A    between atoms: _76  and  _77
REMARK   36  A    between atoms: _76  and  _79
REMARK   37  A    between atoms: _79  and  _80
REMARK   38  A    between atoms: _80  and  _81
REMARK   39  A    between atoms: _81  and  _82
REMARK   40  A    between atoms: _82  and  _83
REMARK   41  A    between atoms: _87  and  _89
REMARK   42  A    between atoms: _89  and  _90
REMARK   43  A    between atoms: _89  and  _92
REMARK   44  A    between atoms: _92  and  _93
REMARK   45  A    between atoms: _99  and  _101
REMARK   46  A    between atoms: _101  and  _102
REMARK   47  A    between atoms: _101  and  _104
REMARK   48  A    between atoms: _104  and  _105
REMARK   49  A    between atoms: _108  and  _110
REMARK   50  A    between atoms: _110  and  _111
REMARK   51  A    between atoms: _110  and  _113
REMARK   52  A    between atoms: _113  and  _114
REMARK   53  A    between atoms: _120  and  _122
REMARK   54  A    between atoms: _122  and  _123
REMARK   55  A    between atoms: _122  and  _125
REMARK   56  A    between atoms: _125  and  _126
REMARK   57  A    between atoms: _129  and  _131
REMARK   58  A    between atoms: _131  and  _132
REMARK   59  A    between atoms: _131  and  _134
REMARK   60  A    between atoms: _134  and  _135
REMARK   61  A    between atoms: _141  and  _143
REMARK   62  A    between atoms: _143  and  _144
REMARK   63  A    between atoms: _143  and  _146
REMARK   64  A    between atoms: _146  and  _147
REMARK   65  A    between atoms: _147  and  _148
REMARK   66  A    between atoms: _151  and  _153
REMARK   67  A    between atoms: _153  and  _154
REMARK   68  A    between atoms: _153  and  _156
REMARK   69  A    between atoms: _156  and  _157
REMARK   70  A    between atoms: _160  and  _162
REMARK   71  A    between atoms: _162  and  _163
REMARK   72  A    between atoms: _162  and  _165
REMARK   73  A    between atoms: _165  and  _166
REMARK   74  A    between atoms: _170  and  ZN_370
REMARK   75  A    between atoms: _171  and  _173
REMARK   76  A    between atoms: _173  and  _174
REMARK   77  A    between atoms: _173  and  _176
REMARK   78  A    between atoms: _179  and  _181
REMARK   79  A    between atoms: _181  and  _182
REMARK   80  A    between atoms: _181  and  _184
REMARK   81  A    between atoms: _184  and  _185
REMARK   82  A    between atoms: _185  and  _186
REMARK   83  A    between atoms: _186  and  _187
REMARK   84  A    between atoms: _187  and  _188
REMARK   85  A    between atoms: _192  and  _194
REMARK   86  A    between atoms: _194  and  _195
REMARK   87  A    between atoms: _194  and  _197
REMARK   88  A    between atoms: _197  and  _198
REMARK   89  A    between atoms: _198  and  _199
REMARK   90  A    between atoms: _199  and  _200
REMARK   91  A    between atoms: _200  and  _201
REMARK   92  A    between atoms: _206  and  _207
REMARK   93  A    between atoms: _212  and  _214
REMARK   94  A    between atoms: _214  and  _215
REMARK   95  A    between atoms: _214  and  _217
REMARK   96  A    between atoms: _217  and  _218
REMARK   97  A    between atoms: _221  and  _223
REMARK   98  A    between atoms: _223  and  _224
REMARK   99  A    between atoms: _223  and  _226
REMARK  100  A    between atoms: _226  and  _227
REMARK  101  A    between atoms: _230  and  _232
REMARK  102  A    between atoms: _232  and  _233
REMARK  103  A    between atoms: _235  and  _237
REMARK  104  A    between atoms: _237  and  _238
REMARK  105  A    between atoms: _237  and  _240
REMARK  106  A    between atoms: _240  and  _241
REMARK  107  A    between atoms: _241  and  _242
REMARK  108  A    between atoms: _242  and  _243
REMARK  109  A    between atoms: _243  and  _244
REMARK  110  A    between atoms: _248  and  _250
REMARK  111  A    between atoms: _250  and  _251
REMARK  112  A    between atoms: _250  and  _253
REMARK  113  A    between atoms: _253  and  _254
REMARK  114  A    between atoms: _254  and  _255
REMARK  115  A    between atoms: _257  and  _259
REMARK  116  A    between atoms: _259  and  _260
REMARK  117  A    between atoms: _259  and  _262
REMARK  118  A    between atoms: _262  and  _263
REMARK  119  A    between atoms: _263  and  _264
REMARK  120  A    between atoms: _264  and  _265
REMARK  121  A    between atoms: _265  and  _266
REMARK  122  A    between atoms: _270  and  _272
REMARK  123  A    between atoms: _272  and  _273
REMARK  124  A    between atoms: _275  and  _277
REMARK  125  A    between atoms: _277  and  _278
REMARK  126  A    between atoms: _277  and  _280
REMARK  127  A    between atoms: _280  and  _281
REMARK  128  A    between atoms: _284  and  _286
REMARK  129  A    between atoms: _286  and  _287
REMARK  130  A    between atoms: _290  and  _292
REMARK  131  A    between atoms: _292  and  _293
REMARK  132  A    between atoms: _292  and  _295
REMARK  133  A    between atoms: _295  and  _296
REMARK  134  A    between atoms: _302  and  _304
REMARK  135  A    between atoms: _304  and  _305
REMARK  136  A    between atoms: _304  and  _307
REMARK  137  A    between atoms: _307  and  _308
REMARK  138  A    between atoms: _318  and  _320
REMARK  139  A    between atoms: _320  and  _321
REMARK  140  A    between atoms: _320  and  _323
REMARK  141  A    between atoms: _323  and  _324
REMARK  142  A    between atoms: _324  and  _325
REMARK  143  A    between atoms: _325  and  _327
REMARK  144  A    between atoms: _327  and  ZN_370
REMARK  145  A    between atoms: _328  and  _330
REMARK  146  A    between atoms: _330  and  _331
REMARK  147  A    between atoms: _330  and  _333
REMARK  148  A    between atoms: _333  and  _334
REMARK  149  A    between atoms: _337  and  _339
REMARK  150  A    between atoms: _339  and  _340
REMARK  151  A    between atoms: _339  and  _342
REMARK  152  A    between atoms: _342  and  _343
REMARK  153  A    between atoms: _346  and  _348
REMARK  154  A    between atoms: _348  and  _349
REMARK  155  A    between atoms: _352  and  _354
REMARK  156  A    between atoms: _354  and  _355
REMARK  157  A    between atoms: _354  and  _357
REMARK  158  A    between atoms: _357  and  _358
REMARK  159  A    between atoms: _361  and  _363
REMARK  160  A    between atoms: _363  and  _364
REMARK  161  A    between atoms: _363  and  _366
REMARK  162  A    between atoms: _366  and  _367
REMARK                            x       y       z     vdW  Elec       q    Type
REMARK                         _______ _______ _______ _____ _____    ______ ____
ROOT
ATOM      1  CA  LEU A   1      23.406   3.774  63.088  0.00  0.00    +0.133 C 
ENDROOT
BRANCH   1   2
ATOM      2  N   LEU A   1      23.635   3.907  61.653  0.00  0.00    -0.239 NA
ATOM      3  H   LEU A   1      22.839   3.744  61.003  0.00  0.00    +0.142 HD
ENDBRANCH   1   2
BRANCH   1   4
ATOM      4  C   LEU A   1      23.147   2.315  63.404  0.00  0.00    +0.224 C 
ATOM      5  O   LEU A   1      22.335   1.678  62.754  0.00  0.00    -0.287 OA
ENDBRANCH   1   4
BRANCH   1   6
ATOM      6  CB  LEU A   1      22.199   4.603  63.507  0.00  0.00    +0.025 C 
BRANCH   6   7
ATOM      7  CG  LEU A   1      22.356   6.100  63.273  0.00  0.00    +0.002 C 
ATOM      8  CD2 LEU A   1      23.587   6.629  64.010  0.00  0.00    +0.000 C 
ATOM      9  CD1 LEU A   1      21.079   6.829  63.708  0.00  0.00    +0.000 C 
ENDBRANCH   6   7
ENDBRANCH   1   6
TORSDOF 4
REMARK  Name = ../refined-set-2016/4kyk/4kyk_pocket.pdb
REMARK  162 active torsions:
REMARK  status: ('A' for Active; 'I' for Inactive)
REMARK    1  A    between atoms: _1  and  _3
REMARK    2  A    between atoms: _3  and  _4
REMARK    3  A    between atoms: _3  and  _6
REMARK    4  A    between atoms: _6  and  _7
REMARK    5  A    between atoms: _7  and  _8
REMARK    6  A    between atoms: _8  and  _9
REMARK    7  A    between atoms: _8  and  _10
REMARK    8  A    between atoms: _9  and  ZN_370
REMARK    9  A    between atoms: _13  and  _15
REMARK   10  A    between atoms: _15  and  _16
REMARK   11  A    between atoms: _15  and  _18
REMARK   12  A    between atoms: _18  and  _19
REMARK   13  A    between atoms: _19  and  _20
REMARK   14  A    between atoms: _22  and  _24
REMARK   15  A    between atoms: _24  and  _25
REMARK   16  A    between atoms: _24  and  _27
REMARK   17  A    between atoms: _27  and  _28
REMARK   18  A    between atoms: _31  and  _33
REMARK   19  A    between atoms: _33  and  _34
REMARK   20  A    between atoms: _33  and  _36
REMARK   21  A    between atoms: _36  and  _37
REMARK   22  A    between atoms: _40  and  _42
REMARK   23  A    between atoms: _42  and  _43
REMARK   24  A    between atoms: _42  and  _45
REMARK   25  A    between atoms: _45  and  _46
REMARK   26  A    between atoms: _53  and  _54
REMARK   27  A    between atoms: _59  and  _61
REMARK   28  A    between atoms: _61  and  _62
REMARK   29  A    between atoms: _65  and  _67
REMARK   30  A    between atoms: _67  and  _68
REMARK   31  A    between atoms: _67  and  _70
REMARK   32  A    between atoms: _70  and  _71
REMARK   33  A    between atoms: _71  and  _72
REMARK   34  A    between atoms: _74  and  _76
REMARK   35  A    between atoms: _76  and  _77
REMARK   36  A    between atoms: _76  and  _79
REMARK   37  A    between atoms: _79  and  _80
REMARK   38  A    between atoms: _80  and  _81
REMARK   39  A    between atoms: _81  and  _82
REMARK   40  A    between atoms: _82  and  _83
REMARK   41  A    between atoms: _87  and  _89
REMARK   42  A    between atoms: _89  and  _90
REMARK   43  A    between atoms: _89  and  _92
REMARK   44  A    between atoms: _92  and  _93
REMARK   45  A    between atoms: _99  and  _101
REMARK   46  A    between atoms: _101  and  _102
REMARK   47  A    between atoms: _101  and  _104
REMARK   48  A    between atoms: _104  and  _105
REMARK   49  A    between atoms: _108  and  _110
REMARK   50  A    between atoms: _110  and  _111
REMARK   51  A    between atoms: _110  and  _113
REMARK   52  A    between atoms: _113  and  _114
REMARK   53  A    between atoms: _120  and  _122
REMARK   54  A    between atoms: _122  and  _123
REMARK   55  A    between atoms: _122  and  _125
REMARK   56  A    between atoms: _125  and  _126
REMARK   57  A    between atoms: _129  and  _131
REMARK   58  A    between atoms: _131  and  _132
REMARK   59  A    between atoms: _131  and  _134
REMARK   60  A    between atoms: _134  and  _135
REMARK   61  A    between atoms: _141  and  _143
REMARK   62  A    between atoms: _143  and  _144
REMARK   63  A    between atoms: _143  and  _146
REMARK   64  A    between atoms: _146  and  _147
REMARK   65  A    between atoms: _147  and  _148
REMARK   66  A    between atoms: _151  and  _153
REMARK   67  A    between atoms: _153  and  _154
REMARK   68  A    between atoms: _153  and  _156
REMARK   69  A    between atoms: _156  and  _157
REMARK   70  A    between atoms: _160  and  _162
REMARK   71  A    between atoms: _162  and  _163
REMARK   72  A    between atoms: _162  and  _165
REMARK   73  A    between atoms: _165  and  _166
REMARK   74  A    between atoms: _170  and  ZN_370
REMARK   75  A    between atoms: _171  and  _173
REMARK   76  A    between atoms: _173  and  _174
REMARK   77  A    between atoms: _173  and  _176
REMARK   78  A    between atoms: _179  and  _181
REMARK   79  A    between atoms: _181  and  _182
REMARK   80  A    between atoms: _181  and  _184
REMARK   81  A    between atoms: _184  and  _185
REMARK   82  A    between atoms: _185  and  _186
REMARK   83  A    between atoms: _186  and  _187
REMARK   84  A    between atoms: _187  and  _188
REMARK   85  A    between atoms: _192  and  _194
REMARK   86  A    between atoms: _194  and  _195
REMARK   87  A    between atoms: _194  and  _197
REMARK   88  A    between atoms: _197  and  _198
REMARK   89  A    between atoms: _198  and  _199
REMARK   90  A    between atoms: _199  and  _200
REMARK   91  A    between atoms: _200  and  _201
REMARK   92  A    between atoms: _206  and  _207
REMARK   93  A    between atoms: _212  and  _214
REMARK   94  A    between atoms: _214  and  _215
REMARK   95  A    between atoms: _214  and  _217
REMARK   96  A    between atoms: _217  and  _218
REMARK   97  A    between atoms: _221  and  _223
REMARK   98  A    between atoms: _223  and  _224
REMARK   99  A    between atoms: _223  and  _226
REMARK  100  A    between atoms: _226  and  _227
REMARK  101  A    between atoms: _230  and  _232
REMARK  102  A    between atoms: _232  and  _233
REMARK  103  A    between atoms: _235  and  _237
REMARK  104  A    between atoms: _237  and  _238
REMARK  105  A    between atoms: _237  and  _240
REMARK  106  A    between atoms: _240  and  _241
REMARK  107  A    between atoms: _241  and  _242
REMARK  108  A    between atoms: _242  and  _243
REMARK  109  A    between atoms: _243  and  _244
REMARK  110  A    between atoms: _248  and  _250
REMARK  111  A    between atoms: _250  and  _251
REMARK  112  A    between atoms: _250  and  _253
REMARK  113  A    between atoms: _253  and  _254
REMARK  114  A    between atoms: _254  and  _255
REMARK  115  A    between atoms: _257  and  _259
REMARK  116  A    between atoms: _259  and  _260
REMARK  117  A    between atoms: _259  and  _262
REMARK  118  A    between atoms: _262  and  _263
REMARK  119  A    between atoms: _263  and  _264
REMARK  120  A    between atoms: _264  and  _265
REMARK  121  A    between atoms: _265  and  _266
REMARK  122  A    between atoms: _270  and  _272
REMARK  123  A    between atoms: _272  and  _273
REMARK  124  A    between atoms: _275  and  _277
REMARK  125  A    between atoms: _277  and  _278
REMARK  126  A    between atoms: _277  and  _280
REMARK  127  A    between atoms: _280  and  _281
REMARK  128  A    between atoms: _284  and  _286
REMARK  129  A    between atoms: _286  and  _287
REMARK  130  A    between atoms: _290  and  _292
REMARK  131  A    between atoms: _292  and  _293
REMARK  132  A    between atoms: _292  and  _295
REMARK  133  A    between atoms: _295  and  _296
REMARK  134  A    between atoms: _302  and  _304
REMARK  135  A    between atoms: _304  and  _305
REMARK  136  A    between atoms: _304  and  _307
REMARK  137  A    between atoms: _307  and  _308
REMARK  138  A    between atoms: _318  and  _320
REMARK  139  A    between atoms: _320  and  _321
REMARK  140  A    between atoms: _320  and  _323
REMARK  141  A    between atoms: _323  and  _324
REMARK  142  A    between atoms: _324  and  _325
REMARK  143  A    between atoms: _325  and  _327
REMARK  144  A    between atoms: _327  and  ZN_370
REMARK  145  A    between atoms: _328  and  _330
REMARK  146  A    between atoms: _330  and  _331
REMARK  147  A    between atoms: _330  and  _333
REMARK  148  A    between atoms: _333  and  _334
REMARK  149  A    between atoms: _337  and  _339
REMARK  150  A    between atoms: _339  and  _340
REMARK  151  A    between atoms: _339  and  _342
REMARK  152  A    between atoms: _342  and  _343
REMARK  153  A    between atoms: _346  and  _348
REMARK  154  A    between atoms: _348  and  _349
REMARK  155  A    between atoms: _352  and  _354
REMARK  156  A    between atoms: _354  and  _355
REMARK  157  A    between atoms: _354  and  _357
REMARK  158  A    between atoms: _357  and  _358
REMARK  159  A    between atoms: _361  and  _363
REMARK  160  A    between atoms: _363  and  _364
REMARK  161  A    between atoms: _363  and  _366
REMARK  162  A    between atoms: _366  and  _367
REMARK                            x       y       z     vdW  Elec       q    Type
REMARK                         _______ _______ _______ _____ _____    ______ ____
ROOT
ATOM      1  CB  PHE A   1      19.933   0.385  67.846  0.00  0.00    +0.051 C 
ENDROOT
BRANCH   1   2
ATOM      2  CG  PHE A   1      19.732   1.846  67.680  0.00  0.00    -0.020 A 
ATOM      3  CD2 PHE A   1      19.742   2.677  68.780  0.00  0.00    -0.004 A 
ATOM      4  CE2 PHE A   1      19.564   4.025  68.642  0.00  0.00    -0.000 A 
ATOM      5  CZ  PHE A   1      19.400   4.572  67.394  0.00  0.00    -0.000 A 
ATOM      6  CE1 PHE A   1      19.383   3.763  66.283  0.00  0.00    -0.000 A 
ATOM      7  CD1 PHE A   1      19.547   2.393  66.429  0.00  0.00    -0.004 A 
ENDBRANCH   1   2
BRANCH   1   8
ATOM      8  CA  PHE A   1      21.409  -0.032  67.870  0.00  0.00    +0.137 C 
BRANCH   8   9
ATOM      9  N   PHE A   1      21.972  -0.077  66.528  0.00  0.00    -0.239 NA
ATOM     10  H   PHE A   1      21.426  -0.520  65.762  0.00  0.00    +0.142 HD
ENDBRANCH   8   9
BRANCH   8  11
ATOM     11  C   PHE A   1      21.522  -1.408  68.460  0.00  0.00    +0.224 C 
ATOM     12  O   PHE A   1      21.031  -2.370  67.878  0.00  0.00    -0.287 OA
ENDBRANCH   8  11
ENDBRANCH   1   8
TORSDOF 4
REMARK  Name = ../refined-set-2016/4kyk/4kyk_pocket.pdb
REMARK  162 active torsions:
REMARK  status: ('A' for Active; 'I' for Inactive)
REMARK    1  A    between atoms: _1  and  _3
REMARK    2  A    between atoms: _3  and  _4
REMARK    3  A    between atoms: _3  and  _6
REMARK    4  A    between atoms: _6  and  _7
REMARK    5  A    between atoms: _7  and  _8
REMARK    6  A    between atoms: _8  and  _9
REMARK    7  A    between atoms: _8  and  _10
REMARK    8  A    between atoms: _9  and  ZN_370
REMARK    9  A    between atoms: _13  and  _15
REMARK   10  A    between atoms: _15  and  _16
REMARK   11  A    between atoms: _15  and  _18
REMARK   12  A    between atoms: _18  and  _19
REMARK   13  A    between atoms: _19  and  _20
REMARK   14  A    between atoms: _22  and  _24
REMARK   15  A    between atoms: _24  and  _25
REMARK   16  A    between atoms: _24  and  _27
REMARK   17  A    between atoms: _27  and  _28
REMARK   18  A    between atoms: _31  and  _33
REMARK   19  A    between atoms: _33  and  _34
REMARK   20  A    between atoms: _33  and  _36
REMARK   21  A    between atoms: _36  and  _37
REMARK   22  A    between atoms: _40  and  _42
REMARK   23  A    between atoms: _42  and  _43
REMARK   24  A    between atoms: _42  and  _45
REMARK   25  A    between atoms: _45  and  _46
REMARK   26  A    between atoms: _53  and  _54
REMARK   27  A    between atoms: _59  and  _61
REMARK   28  A    between atoms: _61  and  _62
REMARK   29  A    between atoms: _65  and  _67
REMARK   30  A    between atoms: _67  and  _68
REMARK   31  A    between atoms: _67  and  _70
REMARK   32  A    between atoms: _70  and  _71
REMARK   33  A    between atoms: _71  and  _72
REMARK   34  A    between atoms: _74  and  _76
REMARK   35  A    between atoms: _76  and  _77
REMARK   36  A    between atoms: _76  and  _79
REMARK   37  A    between atoms: _79  and  _80
REMARK   38  A    between atoms: _80  and  _81
REMARK   39  A    between atoms: _81  and  _82
REMARK   40  A    between atoms: _82  and  _83
REMARK   41  A    between atoms: _87  and  _89
REMARK   42  A    between atoms: _89  and  _90
REMARK   43  A    between atoms: _89  and  _92
REMARK   44  A    between atoms: _92  and  _93
REMARK   45  A    between atoms: _99  and  _101
REMARK   46  A    between atoms: _101  and  _102
REMARK   47  A    between atoms: _101  and  _104
REMARK   48  A    between atoms: _104  and  _105
REMARK   49  A    between atoms: _108  and  _110
REMARK   50  A    between atoms: _110  and  _111
REMARK   51  A    between atoms: _110  and  _113
REMARK   52  A    between atoms: _113  and  _114
REMARK   53  A    between atoms: _120  and  _122
REMARK   54  A    between atoms: _122  and  _123
REMARK   55  A    between atoms: _122  and  _125
REMARK   56  A    between atoms: _125  and  _126
REMARK   57  A    between atoms: _129  and  _131
REMARK   58  A    between atoms: _131  and  _132
REMARK   59  A    between atoms: _131  and  _134
REMARK   60  A    between atoms: _134  and  _135
REMARK   61  A    between atoms: _141  and  _143
REMARK   62  A    between atoms: _143  and  _144
REMARK   63  A    between atoms: _143  and  _146
REMARK   64  A    between atoms: _146  and  _147
REMARK   65  A    between atoms: _147  and  _148
REMARK   66  A    between atoms: _151  and  _153
REMARK   67  A    between atoms: _153  and  _154
REMARK   68  A    between atoms: _153  and  _156
REMARK   69  A    between atoms: _156  and  _157
REMARK   70  A    between atoms: _160  and  _162
REMARK   71  A    between atoms: _162  and  _163
REMARK   72  A    between atoms: _162  and  _165
REMARK   73  A    between atoms: _165  and  _166
REMARK   74  A    between atoms: _170  and  ZN_370
REMARK   75  A    between atoms: _171  and  _173
REMARK   76  A    between atoms: _173  and  _174
REMARK   77  A    between atoms: _173  and  _176
REMARK   78  A    between atoms: _179  and  _181
REMARK   79  A    between atoms: _181  and  _182
REMARK   80  A    between atoms: _181  and  _184
REMARK   81  A    between atoms: _184  and  _185
REMARK   82  A    between atoms: _185  and  _186
REMARK   83  A    between atoms: _186  and  _187
REMARK   84  A    between atoms: _187  and  _188
REMARK   85  A    between atoms: _192  and  _194
REMARK   86  A    between atoms: _194  and  _195
REMARK   87  A    between atoms: _194  and  _197
REMARK   88  A    between atoms: _197  and  _198
REMARK   89  A    between atoms: _198  and  _199
REMARK   90  A    between atoms: _199  and  _200
REMARK   91  A    between atoms: _200  and  _201
REMARK   92  A    between atoms: _206  and  _207
REMARK   93  A    between atoms: _212  and  _214
REMARK   94  A    between atoms: _214  and  _215
REMARK   95  A    between atoms: _214  and  _217
REMARK   96  A    between atoms: _217  and  _218
REMARK   97  A    between atoms: _221  and  _223
REMARK   98  A    between atoms: _223  and  _224
REMARK   99  A    between atoms: _223  and  _226
REMARK  100  A    between atoms: _226  and  _227
REMARK  101  A    between atoms: _230  and  _232
REMARK  102  A    between atoms: _232  and  _233
REMARK  103  A    between atoms: _235  and  _237
REMARK  104  A    between atoms: _237  and  _238
REMARK  105  A    between atoms: _237  and  _240
REMARK  106  A    between atoms: _240  and  _241
REMARK  107  A    between atoms: _241  and  _242
REMARK  108  A    between atoms: _242  and  _243
REMARK  109  A    between atoms: _243  and  _244
REMARK  110  A    between atoms: _248  and  _250
REMARK  111  A    between atoms: _250  and  _251
REMARK  112  A    between atoms: _250  and  _253
REMARK  113  A    between atoms: _253  and  _254
REMARK  114  A    between atoms: _254  and  _255
REMARK  115  A    between atoms: _257  and  _259
REMARK  116  A    between atoms: _259  and  _260
REMARK  117  A    between atoms: _259  and  _262
REMARK  118  A    between atoms: _262  and  _263
REMARK  119  A    between atoms: _263  and  _264
REMARK  120  A    between atoms: _264  and  _265
REMARK  121  A    between atoms: _265  and  _266
REMARK  122  A    between atoms: _270  and  _272
REMARK  123  A    between atoms: _272  and  _273
REMARK  124  A    between atoms: _275  and  _277
REMARK  125  A    between atoms: _277  and  _278
REMARK  126  A    between atoms: _277  and  _280
REMARK  127  A    between atoms: _280  and  _281
REMARK  128  A    between atoms: _284  and  _286
REMARK  129  A    between atoms: _286  and  _287
REMARK  130  A    between atoms: _290  and  _292
REMARK  131  A    between atoms: _292  and  _293
REMARK  132  A    between atoms: _292  and  _295
REMARK  133  A    between atoms: _295  and  _296
REMARK  134  A    between atoms: _302  and  _304
REMARK  135  A    between atoms: _304  and  _305
REMARK  136  A    between atoms: _304  and  _307
REMARK  137  A    between atoms: _307  and  _308
REMARK  138  A    between atoms: _318  and  _320
REMARK  139  A    between atoms: _320  and  _321
REMARK  140  A    between atoms: _320  and  _323
REMARK  141  A    between atoms: _323  and  _324
REMARK  142  A    between atoms: _324  and  _325
REMARK  143  A    between atoms: _325  and  _327
REMARK  144  A    between atoms: _327  and  ZN_370
REMARK  145  A    between atoms: _328  and  _330
REMARK  146  A    between atoms: _330  and  _331
REMARK  147  A    between atoms: _330  and  _333
REMARK  148  A    between atoms: _333  and  _334
REMARK  149  A    between atoms: _337  and  _339
REMARK  150  A    between atoms: _339  and  _340
REMARK  151  A    between atoms: _339  and  _342
REMARK  152  A    between atoms: _342  and  _343
REMARK  153  A    between atoms: _346  and  _348
REMARK  154  A    between atoms: _348  and  _349
REMARK  155  A    between atoms: _352  and  _354
REMARK  156  A    between atoms: _354  and  _355
REMARK  157  A    between atoms: _354  and  _357
REMARK  158  A    between atoms: _357  and  _358
REMARK  159  A    between atoms: _361  and  _363
REMARK  160  A    between atoms: _363  and  _364
REMARK  161  A    between atoms: _363  and  _366
REMARK  162  A    between atoms: _366  and  _367
REMARK                            x       y       z     vdW  Elec       q    Type
REMARK                         _______ _______ _______ _____ _____    ______ ____
ROOT
ATOM      1  CA  THR A   1      11.930   1.691  64.341  0.00  0.00    +0.160 C 
ENDROOT
BRANCH   1   2
ATOM      2  N   THR A   1      11.402   0.383  63.968  0.00  0.00    -0.237 NA
ATOM      3  H   THR A   1      10.866   0.293  63.081  0.00  0.00    +0.142 HD
ENDBRANCH   1   2
BRANCH   1   4
ATOM      4  C   THR A   1      11.324   2.219  65.639  0.00  0.00    +0.227 C 
ATOM      5  O   THR A   1      12.048   2.625  66.556  0.00  0.00    -0.287 OA
ENDBRANCH   1   4
BRANCH   1   6
ATOM      6  CB  THR A   1      11.730   2.704  63.194  0.00  0.00    +0.134 C 
ATOM      7  CG2 THR A   1      12.373   4.044  63.526  0.00  0.00    +0.034 C 
BRANCH   6   8
ATOM      8  OG1 THR A   1      12.337   2.181  62.010  0.00  0.00    -0.383 OA
ATOM      9  HG1 THR A   1      11.911   1.318  61.776  0.00  0.00    +0.210 HD
ENDBRANCH   6   8
ENDBRANCH   1   6
TORSDOF 4
REMARK  Name = ../refined-set-2016/4kyk/4kyk_pocket.pdb
REMARK  162 active torsions:
REMARK  status: ('A' for Active; 'I' for Inactive)
REMARK    1  A    between atoms: _1  and  _3
REMARK    2  A    between atoms: _3  and  _4
REMARK    3  A    between atoms: _3  and  _6
REMARK    4  A    between atoms: _6  and  _7
REMARK    5  A    between atoms: _7  and  _8
REMARK    6  A    between atoms: _8  and  _9
REMARK    7  A    between atoms: _8  and  _10
REMARK    8  A    between atoms: _9  and  ZN_370
REMARK    9  A    between atoms: _13  and  _15
REMARK   10  A    between atoms: _15  and  _16
REMARK   11  A    between atoms: _15  and  _18
REMARK   12  A    between atoms: _18  and  _19
REMARK   13  A    between atoms: _19  and  _20
REMARK   14  A    between atoms: _22  and  _24
REMARK   15  A    between atoms: _24  and  _25
REMARK   16  A    between atoms: _24  and  _27
REMARK   17  A    between atoms: _27  and  _28
REMARK   18  A    between atoms: _31  and  _33
REMARK   19  A    between atoms: _33  and  _34
REMARK   20  A    between atoms: _33  and  _36
REMARK   21  A    between atoms: _36  and  _37
REMARK   22  A    between atoms: _40  and  _42
REMARK   23  A    between atoms: _42  and  _43
REMARK   24  A    between atoms: _42  and  _45
REMARK   25  A    between atoms: _45  and  _46
REMARK   26  A    between atoms: _53  and  _54
REMARK   27  A    between atoms: _59  and  _61
REMARK   28  A    between atoms: _61  and  _62
REMARK   29  A    between atoms: _65  and  _67
REMARK   30  A    between atoms: _67  and  _68
REMARK   31  A    between atoms: _67  and  _70
REMARK   32  A    between atoms: _70  and  _71
REMARK   33  A    between atoms: _71  and  _72
REMARK   34  A    between atoms: _74  and  _76
REMARK   35  A    between atoms: _76  and  _77
REMARK   36  A    between atoms: _76  and  _79
REMARK   37  A    between atoms: _79  and  _80
REMARK   38  A    between atoms: _80  and  _81
REMARK   39  A    between atoms: _81  and  _82
REMARK   40  A    between atoms: _82  and  _83
REMARK   41  A    between atoms: _87  and  _89
REMARK   42  A    between atoms: _89  and  _90
REMARK   43  A    between atoms: _89  and  _92
REMARK   44  A    between atoms: _92  and  _93
REMARK   45  A    between atoms: _99  and  _101
REMARK   46  A    between atoms: _101  and  _102
REMARK   47  A    between atoms: _101  and  _104
REMARK   48  A    between atoms: _104  and  _105
REMARK   49  A    between atoms: _108  and  _110
REMARK   50  A    between atoms: _110  and  _111
REMARK   51  A    between atoms: _110  and  _113
REMARK   52  A    between atoms: _113  and  _114
REMARK   53  A    between atoms: _120  and  _122
REMARK   54  A    between atoms: _122  and  _123
REMARK   55  A    between atoms: _122  and  _125
REMARK   56  A    between atoms: _125  and  _126
REMARK   57  A    between atoms: _129  and  _131
REMARK   58  A    between atoms: _131  and  _132
REMARK   59  A    between atoms: _131  and  _134
REMARK   60  A    between atoms: _134  and  _135
REMARK   61  A    between atoms: _141  and  _143
REMARK   62  A    between atoms: _143  and  _144
REMARK   63  A    between atoms: _143  and  _146
REMARK   64  A    between atoms: _146  and  _147
REMARK   65  A    between atoms: _147  and  _148
REMARK   66  A    between atoms: _151  and  _153
REMARK   67  A    between atoms: _153  and  _154
REMARK   68  A    between atoms: _153  and  _156
REMARK   69  A    between atoms: _156  and  _157
REMARK   70  A    between atoms: _160  and  _162
REMARK   71  A    between atoms: _162  and  _163
REMARK   72  A    between atoms: _162  and  _165
REMARK   73  A    between atoms: _165  and  _166
REMARK   74  A    between atoms: _170  and  ZN_370
REMARK   75  A    between atoms: _171  and  _173
REMARK   76  A    between atoms: _173  and  _174
REMARK   77  A    between atoms: _173  and  _176
REMARK   78  A    between atoms: _179  and  _181
REMARK   79  A    between atoms: _181  and  _182
REMARK   80  A    between atoms: _181  and  _184
REMARK   81  A    between atoms: _184  and  _185
REMARK   82  A    between atoms: _185  and  _186
REMARK   83  A    between atoms: _186  and  _187
REMARK   84  A    between atoms: _187  and  _188
REMARK   85  A    between atoms: _192  and  _194
REMARK   86  A    between atoms: _194  and  _195
REMARK   87  A    between atoms: _194  and  _197
REMARK   88  A    between atoms: _197  and  _198
REMARK   89  A    between atoms: _198  and  _199
REMARK   90  A    between atoms: _199  and  _200
REMARK   91  A    between atoms: _200  and  _201
REMARK   92  A    between atoms: _206  and  _207
REMARK   93  A    between atoms: _212  and  _214
REMARK   94  A    between atoms: _214  and  _215
REMARK   95  A    between atoms: _214  and  _217
REMARK   96  A    between atoms: _217  and  _218
REMARK   97  A    between atoms: _221  and  _223
REMARK   98  A    between atoms: _223  and  _224
REMARK   99  A    between atoms: _223  and  _226
REMARK  100  A    between atoms: _226  and  _227
REMARK  101  A    between atoms: _230  and  _232
REMARK  102  A    between atoms: _232  and  _233
REMARK  103  A    between atoms: _235  and  _237
REMARK  104  A    between atoms: _237  and  _238
REMARK  105  A    between atoms: _237  and  _240
REMARK  106  A    between atoms: _240  and  _241
REMARK  107  A    between atoms: _241  and  _242
REMARK  108  A    between atoms: _242  and  _243
REMARK  109  A    between atoms: _243  and  _244
REMARK  110  A    between atoms: _248  and  _250
REMARK  111  A    between atoms: _250  and  _251
REMARK  112  A    between atoms: _250  and  _253
REMARK  113  A    between atoms: _253  and  _254
REMARK  114  A    between atoms: _254  and  _255
REMARK  115  A    between atoms: _257  and  _259
REMARK  116  A    between atoms: _259  and  _260
REMARK  117  A    between atoms: _259  and  _262
REMARK  118  A    between atoms: _262  and  _263
REMARK  119  A    between atoms: _263  and  _264
REMARK  120  A    between atoms: _264  and  _265
REMARK  121  A    between atoms: _265  and  _266
REMARK  122  A    between atoms: _270  and  _272
REMARK  123  A    between atoms: _272  and  _273
REMARK  124  A    between atoms: _275  and  _277
REMARK  125  A    between atoms: _277  and  _278
REMARK  126  A    between atoms: _277  and  _280
REMARK  127  A    between atoms: _280  and  _281
REMARK  128  A    between atoms: _284  and  _286
REMARK  129  A    between atoms: _286  and  _287
REMARK  130  A    between atoms: _290  and  _292
REMARK  131  A    between atoms: _292  and  _293
REMARK  132  A    between atoms: _292  and  _295
REMARK  133  A    between atoms: _295  and  _296
REMARK  134  A    between atoms: _302  and  _304
REMARK  135  A    between atoms: _304  and  _305
REMARK  136  A    between atoms: _304  and  _307
REMARK  137  A    between atoms: _307  and  _308
REMARK  138  A    between atoms: _318  and  _320
REMARK  139  A    between atoms: _320  and  _321
REMARK  140  A    between atoms: _320  and  _323
REMARK  141  A    between atoms: _323  and  _324
REMARK  142  A    between atoms: _324  and  _325
REMARK  143  A    between atoms: _325  and  _327
REMARK  144  A    between atoms: _327  and  ZN_370
REMARK  145  A    between atoms: _328  and  _330
REMARK  146  A    between atoms: _330  and  _331
REMARK  147  A    between atoms: _330  and  _333
REMARK  148  A    between atoms: _333  and  _334
REMARK  149  A    between atoms: _337  and  _339
REMARK  150  A    between atoms: _339  and  _340
REMARK  151  A    between atoms: _339  and  _342
REMARK  152  A    between atoms: _342  and  _343
REMARK  153  A    between atoms: _346  and  _348
REMARK  154  A    between atoms: _348  and  _349
REMARK  155  A    between atoms: _352  and  _354
REMARK  156  A    between atoms: _354  and  _355
REMARK  157  A    between atoms: _354  and  _357
REMARK  158  A    between atoms: _357  and  _358
REMARK  159  A    between atoms: _361  and  _363
REMARK  160  A    between atoms: _363  and  _364
REMARK  161  A    between atoms: _363  and  _366
REMARK  162  A    between atoms: _366  and  _367
REMARK                            x       y       z     vdW  Elec       q    Type
REMARK                         _______ _______ _______ _____ _____    ______ ____
ROOT
ATOM      1  CB  PHE A   1      13.463   5.000  68.858  0.00  0.00    +0.051 C 
ENDROOT
BRANCH   1   2
ATOM      2  CG  PHE A   1      14.591   5.327  67.929  0.00  0.00    -0.020 A 
ATOM      3  CD2 PHE A   1      15.541   6.273  68.280  0.00  0.00    -0.004 A 
ATOM      4  CE2 PHE A   1      16.598   6.543  67.437  0.00  0.00    -0.000 A 
ATOM      5  CZ  PHE A   1      16.712   5.859  66.229  0.00  0.00    -0.000 A 
ATOM      6  CE1 PHE A   1      15.796   4.905  65.897  0.00  0.00    -0.000 A 
ATOM      7  CD1 PHE A   1      14.742   4.644  66.737  0.00  0.00    -0.004 A 
ENDBRANCH   1   2
BRANCH   1   8
ATOM      8  CA  PHE A   1      13.797   3.860  69.835  0.00  0.00    +0.137 C 
BRANCH   8   9
ATOM      9  N   PHE A   1      13.626   2.546  69.196  0.00  0.00    -0.239 NA
ATOM     10  H   PHE A   1      13.041   2.470  68.340  0.00  0.00    +0.142 HD
ENDBRANCH   8   9
BRANCH   8  11
ATOM     11  C   PHE A   1      13.016   4.014  71.139  0.00  0.00    +0.224 C 
ATOM     12  O   PHE A   1      13.070   5.061  71.792  0.00  0.00    -0.287 OA
ENDBRANCH   8  11
ENDBRANCH   1   8
TORSDOF 4
REMARK  Name = ../refined-set-2016/4kyk/4kyk_pocket.pdb
REMARK  162 active torsions:
REMARK  status: ('A' for Active; 'I' for Inactive)
REMARK    1  A    between atoms: _1  and  _3
REMARK    2  A    between atoms: _3  and  _4
REMARK    3  A    between atoms: _3  and  _6
REMARK    4  A    between atoms: _6  and  _7
REMARK    5  A    between atoms: _7  and  _8
REMARK    6  A    between atoms: _8  and  _9
REMARK    7  A    between atoms: _8  and  _10
REMARK    8  A    between atoms: _9  and  ZN_370
REMARK    9  A    between atoms: _13  and  _15
REMARK   10  A    between atoms: _15  and  _16
REMARK   11  A    between atoms: _15  and  _18
REMARK   12  A    between atoms: _18  and  _19
REMARK   13  A    between atoms: _19  and  _20
REMARK   14  A    between atoms: _22  and  _24
REMARK   15  A    between atoms: _24  and  _25
REMARK   16  A    between atoms: _24  and  _27
REMARK   17  A    between atoms: _27  and  _28
REMARK   18  A    between atoms: _31  and  _33
REMARK   19  A    between atoms: _33  and  _34
REMARK   20  A    between atoms: _33  and  _36
REMARK   21  A    between atoms: _36  and  _37
REMARK   22  A    between atoms: _40  and  _42
REMARK   23  A    between atoms: _42  and  _43
REMARK   24  A    between atoms: _42  and  _45
REMARK   25  A    between atoms: _45  and  _46
REMARK   26  A    between atoms: _53  and  _54
REMARK   27  A    between atoms: _59  and  _61
REMARK   28  A    between atoms: _61  and  _62
REMARK   29  A    between atoms: _65  and  _67
REMARK   30  A    between atoms: _67  and  _68
REMARK   31  A    between atoms: _67  and  _70
REMARK   32  A    between atoms: _70  and  _71
REMARK   33  A    between atoms: _71  and  _72
REMARK   34  A    between atoms: _74  and  _76
REMARK   35  A    between atoms: _76  and  _77
REMARK   36  A    between atoms: _76  and  _79
REMARK   37  A    between atoms: _79  and  _80
REMARK   38  A    between atoms: _80  and  _81
REMARK   39  A    between atoms: _81  and  _82
REMARK   40  A    between atoms: _82  and  _83
REMARK   41  A    between atoms: _87  and  _89
REMARK   42  A    between atoms: _89  and  _90
REMARK   43  A    between atoms: _89  and  _92
REMARK   44  A    between atoms: _92  and  _93
REMARK   45  A    between atoms: _99  and  _101
REMARK   46  A    between atoms: _101  and  _102
REMARK   47  A    between atoms: _101  and  _104
REMARK   48  A    between atoms: _104  and  _105
REMARK   49  A    between atoms: _108  and  _110
REMARK   50  A    between atoms: _110  and  _111
REMARK   51  A    between atoms: _110  and  _113
REMARK   52  A    between atoms: _113  and  _114
REMARK   53  A    between atoms: _120  and  _122
REMARK   54  A    between atoms: _122  and  _123
REMARK   55  A    between atoms: _122  and  _125
REMARK   56  A    between atoms: _125  and  _126
REMARK   57  A    between atoms: _129  and  _131
REMARK   58  A    between atoms: _131  and  _132
REMARK   59  A    between atoms: _131  and  _134
REMARK   60  A    between atoms: _134  and  _135
REMARK   61  A    between atoms: _141  and  _143
REMARK   62  A    between atoms: _143  and  _144
REMARK   63  A    between atoms: _143  and  _146
REMARK   64  A    between atoms: _146  and  _147
REMARK   65  A    between atoms: _147  and  _148
REMARK   66  A    between atoms: _151  and  _153
REMARK   67  A    between atoms: _153  and  _154
REMARK   68  A    between atoms: _153  and  _156
REMARK   69  A    between atoms: _156  and  _157
REMARK   70  A    between atoms: _160  and  _162
REMARK   71  A    between atoms: _162  and  _163
REMARK   72  A    between atoms: _162  and  _165
REMARK   73  A    between atoms: _165  and  _166
REMARK   74  A    between atoms: _170  and  ZN_370
REMARK   75  A    between atoms: _171  and  _173
REMARK   76  A    between atoms: _173  and  _174
REMARK   77  A    between atoms: _173  and  _176
REMARK   78  A    between atoms: _179  and  _181
REMARK   79  A    between atoms: _181  and  _182
REMARK   80  A    between atoms: _181  and  _184
REMARK   81  A    between atoms: _184  and  _185
REMARK   82  A    between atoms: _185  and  _186
REMARK   83  A    between atoms: _186  and  _187
REMARK   84  A    between atoms: _187  and  _188
REMARK   85  A    between atoms: _192  and  _194
REMARK   86  A    between atoms: _194  and  _195
REMARK   87  A    between atoms: _194  and  _197
REMARK   88  A    between atoms: _197  and  _198
REMARK   89  A    between atoms: _198  and  _199
REMARK   90  A    between atoms: _199  and  _200
REMARK   91  A    between atoms: _200  and  _201
REMARK   92  A    between atoms: _206  and  _207
REMARK   93  A    between atoms: _212  and  _214
REMARK   94  A    between atoms: _214  and  _215
REMARK   95  A    between atoms: _214  and  _217
REMARK   96  A    between atoms: _217  and  _218
REMARK   97  A    between atoms: _221  and  _223
REMARK   98  A    between atoms: _223  and  _224
REMARK   99  A    between atoms: _223  and  _226
REMARK  100  A    between atoms: _226  and  _227
REMARK  101  A    between atoms: _230  and  _232
REMARK  102  A    between atoms: _232  and  _233
REMARK  103  A    between atoms: _235  and  _237
REMARK  104  A    between atoms: _237  and  _238
REMARK  105  A    between atoms: _237  and  _240
REMARK  106  A    between atoms: _240  and  _241
REMARK  107  A    between atoms: _241  and  _242
REMARK  108  A    between atoms: _242  and  _243
REMARK  109  A    between atoms: _243  and  _244
REMARK  110  A    between atoms: _248  and  _250
REMARK  111  A    between atoms: _250  and  _251
REMARK  112  A    between atoms: _250  and  _253
REMARK  113  A    between atoms: _253  and  _254
REMARK  114  A    between atoms: _254  and  _255
REMARK  115  A    between atoms: _257  and  _259
REMARK  116  A    between atoms: _259  and  _260
REMARK  117  A    between atoms: _259  and  _262
REMARK  118  A    between atoms: _262  and  _263
REMARK  119  A    between atoms: _263  and  _264
REMARK  120  A    between atoms: _264  and  _265
REMARK  121  A    between atoms: _265  and  _266
REMARK  122  A    between atoms: _270  and  _272
REMARK  123  A    between atoms: _272  and  _273
REMARK  124  A    between atoms: _275  and  _277
REMARK  125  A    between atoms: _277  and  _278
REMARK  126  A    between atoms: _277  and  _280
REMARK  127  A    between atoms: _280  and  _281
REMARK  128  A    between atoms: _284  and  _286
REMARK  129  A    between atoms: _286  and  _287
REMARK  130  A    between atoms: _290  and  _292
REMARK  131  A    between atoms: _292  and  _293
REMARK  132  A    between atoms: _292  and  _295
REMARK  133  A    between atoms: _295  and  _296
REMARK  134  A    between atoms: _302  and  _304
REMARK  135  A    between atoms: _304  and  _305
REMARK  136  A    between atoms: _304  and  _307
REMARK  137  A    between atoms: _307  and  _308
REMARK  138  A    between atoms: _318  and  _320
REMARK  139  A    between atoms: _320  and  _321
REMARK  140  A    between atoms: _320  and  _323
REMARK  141  A    between atoms: _323  and  _324
REMARK  142  A    between atoms: _324  and  _325
REMARK  143  A    between atoms: _325  and  _327
REMARK  144  A    between atoms: _327  and  ZN_370
REMARK  145  A    between atoms: _328  and  _330
REMARK  146  A    between atoms: _330  and  _331
REMARK  147  A    between atoms: _330  and  _333
REMARK  148  A    between atoms: _333  and  _334
REMARK  149  A    between atoms: _337  and  _339
REMARK  150  A    between atoms: _339  and  _340
REMARK  151  A    between atoms: _339  and  _342
REMARK  152  A    between atoms: _342  and  _343
REMARK  153  A    between atoms: _346  and  _348
REMARK  154  A    between atoms: _348  and  _349
REMARK  155  A    between atoms: _352  and  _354
REMARK  156  A    between atoms: _354  and  _355
REMARK  157  A    between atoms: _354  and  _357
REMARK  158  A    between atoms: _357  and  _358
REMARK  159  A    between atoms: _361  and  _363
REMARK  160  A    between atoms: _363  and  _364
REMARK  161  A    between atoms: _363  and  _366
REMARK  162  A    between atoms: _366  and  _367
REMARK                            x       y       z     vdW  Elec       q    Type
REMARK                         _______ _______ _______ _____ _____    ______ ____
ROOT
ATOM      1  CA  GLU A   1      23.802   3.639  69.400  0.00  0.00    +0.134 C 
ENDROOT
BRANCH   1   2
ATOM      2  N   GLU A   1      23.862   3.206  70.774  0.00  0.00    -0.239 NA
ATOM      3  H   GLU A   1      24.124   3.890  71.513  0.00  0.00    +0.142 HD
ENDBRANCH   1   2
BRANCH   1   4
ATOM      4  C   GLU A   1      25.224   3.787  68.884  0.00  0.00    +0.224 C 
ATOM      5  O   GLU A   1      25.972   4.666  69.302  0.00  0.00    -0.287 OA
ENDBRANCH   1   4
BRANCH   1   6
ATOM      6  CB  GLU A   1      23.050   4.961  69.281  0.00  0.00    +0.037 C 
BRANCH   6   7
ATOM      7  CG  GLU A   1      22.979   5.460  67.848  0.00  0.00    +0.116 C 
BRANCH   7   8
ATOM      8  CD  GLU A   1      22.414   6.862  67.760  0.00  0.00    +0.365 C 
ATOM      9  OE2 GLU A   1      23.193   7.811  67.877  0.00  0.00    -0.246 OA
ATOM     10  OE1 GLU A   1      21.197   7.029  67.581  0.00  0.00    -0.246 OA
ENDBRANCH   7   8
ENDBRANCH   6   7
ENDBRANCH   1   6
TORSDOF 5
REMARK  Name = ../refined-set-2016/4kyk/4kyk_pocket.pdb
REMARK  162 active torsions:
REMARK  status: ('A' for Active; 'I' for Inactive)
REMARK    1  A    between atoms: _1  and  _3
REMARK    2  A    between atoms: _3  and  _4
REMARK    3  A    between atoms: _3  and  _6
REMARK    4  A    between atoms: _6  and  _7
REMARK    5  A    between atoms: _7  and  _8
REMARK    6  A    between atoms: _8  and  _9
REMARK    7  A    between atoms: _8  and  _10
REMARK    8  A    between atoms: _9  and  ZN_370
REMARK    9  A    between atoms: _13  and  _15
REMARK   10  A    between atoms: _15  and  _16
REMARK   11  A    between atoms: _15  and  _18
REMARK   12  A    between atoms: _18  and  _19
REMARK   13  A    between atoms: _19  and  _20
REMARK   14  A    between atoms: _22  and  _24
REMARK   15  A    between atoms: _24  and  _25
REMARK   16  A    between atoms: _24  and  _27
REMARK   17  A    between atoms: _27  and  _28
REMARK   18  A    between atoms: _31  and  _33
REMARK   19  A    between atoms: _33  and  _34
REMARK   20  A    between atoms: _33  and  _36
REMARK   21  A    between atoms: _36  and  _37
REMARK   22  A    between atoms: _40  and  _42
REMARK   23  A    between atoms: _42  and  _43
REMARK   24  A    between atoms: _42  and  _45
REMARK   25  A    between atoms: _45  and  _46
REMARK   26  A    between atoms: _53  and  _54
REMARK   27  A    between atoms: _59  and  _61
REMARK   28  A    between atoms: _61  and  _62
REMARK   29  A    between atoms: _65  and  _67
REMARK   30  A    between atoms: _67  and  _68
REMARK   31  A    between atoms: _67  and  _70
REMARK   32  A    between atoms: _70  and  _71
REMARK   33  A    between atoms: _71  and  _72
REMARK   34  A    between atoms: _74  and  _76
REMARK   35  A    between atoms: _76  and  _77
REMARK   36  A    between atoms: _76  and  _79
REMARK   37  A    between atoms: _79  and  _80
REMARK   38  A    between atoms: _80  and  _81
REMARK   39  A    between atoms: _81  and  _82
REMARK   40  A    between atoms: _82  and  _83
REMARK   41  A    between atoms: _87  and  _89
REMARK   42  A    between atoms: _89  and  _90
REMARK   43  A    between atoms: _89  and  _92
REMARK   44  A    between atoms: _92  and  _93
REMARK   45  A    between atoms: _99  and  _101
REMARK   46  A    between atoms: _101  and  _102
REMARK   47  A    between atoms: _101  and  _104
REMARK   48  A    between atoms: _104  and  _105
REMARK   49  A    between atoms: _108  and  _110
REMARK   50  A    between atoms: _110  and  _111
REMARK   51  A    between atoms: _110  and  _113
REMARK   52  A    between atoms: _113  and  _114
REMARK   53  A    between atoms: _120  and  _122
REMARK   54  A    between atoms: _122  and  _123
REMARK   55  A    between atoms: _122  and  _125
REMARK   56  A    between atoms: _125  and  _126
REMARK   57  A    between atoms: _129  and  _131
REMARK   58  A    between atoms: _131  and  _132
REMARK   59  A    between atoms: _131  and  _134
REMARK   60  A    between atoms: _134  and  _135
REMARK   61  A    between atoms: _141  and  _143
REMARK   62  A    between atoms: _143  and  _144
REMARK   63  A    between atoms: _143  and  _146
REMARK   64  A    between atoms: _146  and  _147
REMARK   65  A    between atoms: _147  and  _148
REMARK   66  A    between atoms: _151  and  _153
REMARK   67  A    between atoms: _153  and  _154
REMARK   68  A    between atoms: _153  and  _156
REMARK   69  A    between atoms: _156  and  _157
REMARK   70  A    between atoms: _160  and  _162
REMARK   71  A    between atoms: _162  and  _163
REMARK   72  A    between atoms: _162  and  _165
REMARK   73  A    between atoms: _165  and  _166
REMARK   74  A    between atoms: _170  and  ZN_370
REMARK   75  A    between atoms: _171  and  _173
REMARK   76  A    between atoms: _173  and  _174
REMARK   77  A    between atoms: _173  and  _176
REMARK   78  A    between atoms: _179  and  _181
REMARK   79  A    between atoms: _181  and  _182
REMARK   80  A    between atoms: _181  and  _184
REMARK   81  A    between atoms: _184  and  _185
REMARK   82  A    between atoms: _185  and  _186
REMARK   83  A    between atoms: _186  and  _187
REMARK   84  A    between atoms: _187  and  _188
REMARK   85  A    between atoms: _192  and  _194
REMARK   86  A    between atoms: _194  and  _195
REMARK   87  A    between atoms: _194  and  _197
REMARK   88  A    between atoms: _197  and  _198
REMARK   89  A    between atoms: _198  and  _199
REMARK   90  A    between atoms: _199  and  _200
REMARK   91  A    between atoms: _200  and  _201
REMARK   92  A    between atoms: _206  and  _207
REMARK   93  A    between atoms: _212  and  _214
REMARK   94  A    between atoms: _214  and  _215
REMARK   95  A    between atoms: _214  and  _217
REMARK   96  A    between atoms: _217  and  _218
REMARK   97  A    between atoms: _221  and  _223
REMARK   98  A    between atoms: _223  and  _224
REMARK   99  A    between atoms: _223  and  _226
REMARK  100  A    between atoms: _226  and  _227
REMARK  101  A    between atoms: _230  and  _232
REMARK  102  A    between atoms: _232  and  _233
REMARK  103  A    between atoms: _235  and  _237
REMARK  104  A    between atoms: _237  and  _238
REMARK  105  A    between atoms: _237  and  _240
REMARK  106  A    between atoms: _240  and  _241
REMARK  107  A    between atoms: _241  and  _242
REMARK  108  A    between atoms: _242  and  _243
REMARK  109  A    between atoms: _243  and  _244
REMARK  110  A    between atoms: _248  and  _250
REMARK  111  A    between atoms: _250  and  _251
REMARK  112  A    between atoms: _250  and  _253
REMARK  113  A    between atoms: _253  and  _254
REMARK  114  A    between atoms: _254  and  _255
REMARK  115  A    between atoms: _257  and  _259
REMARK  116  A    between atoms: _259  and  _260
REMARK  117  A    between atoms: _259  and  _262
REMARK  118  A    between atoms: _262  and  _263
REMARK  119  A    between atoms: _263  and  _264
REMARK  120  A    between atoms: _264  and  _265
REMARK  121  A    between atoms: _265  and  _266
REMARK  122  A    between atoms: _270  and  _272
REMARK  123  A    between atoms: _272  and  _273
REMARK  124  A    between atoms: _275  and  _277
REMARK  125  A    between atoms: _277  and  _278
REMARK  126  A    between atoms: _277  and  _280
REMARK  127  A    between atoms: _280  and  _281
REMARK  128  A    between atoms: _284  and  _286
REMARK  129  A    between atoms: _286  and  _287
REMARK  130  A    between atoms: _290  and  _292
REMARK  131  A    between atoms: _292  and  _293
REMARK  132  A    between atoms: _292  and  _295
REMARK  133  A    between atoms: _295  and  _296
REMARK  134  A    between atoms: _302  and  _304
REMARK  135  A    between atoms: _304  and  _305
REMARK  136  A    between atoms: _304  and  _307
REMARK  137  A    between atoms: _307  and  _308
REMARK  138  A    between atoms: _318  and  _320
REMARK  139  A    between atoms: _320  and  _321
REMARK  140  A    between atoms: _320  and  _323
REMARK  141  A    between atoms: _323  and  _324
REMARK  142  A    between atoms: _324  and  _325
REMARK  143  A    between atoms: _325  and  _327
REMARK  144  A    between atoms: _327  and  ZN_370
REMARK  145  A    between atoms: _328  and  _330
REMARK  146  A    between atoms: _330  and  _331
REMARK  147  A    between atoms: _330  and  _333
REMARK  148  A    between atoms: _333  and  _334
REMARK  149  A    between atoms: _337  and  _339
REMARK  150  A    between atoms: _339  and  _340
REMARK  151  A    between atoms: _339  and  _342
REMARK  152  A    between atoms: _342  and  _343
REMARK  153  A    between atoms: _346  and  _348
REMARK  154  A    between atoms: _348  and  _349
REMARK  155  A    between atoms: _352  and  _354
REMARK  156  A    between atoms: _354  and  _355
REMARK  157  A    between atoms: _354  and  _357
REMARK  158  A    between atoms: _357  and  _358
REMARK  159  A    between atoms: _361  and  _363
REMARK  160  A    between atoms: _363  and  _364
REMARK  161  A    between atoms: _363  and  _366
REMARK  162  A    between atoms: _366  and  _367
REMARK                            x       y       z     vdW  Elec       q    Type
REMARK                         _______ _______ _______ _____ _____    ______ ____
ROOT
ATOM      1  CA  THR A   1      27.527   5.524  64.756  0.00  0.00    +0.160 C 
ENDROOT
BRANCH   1   2
ATOM      2  N   THR A   1      27.543   4.728  65.981  0.00  0.00    -0.237 NA
ATOM      3  H   THR A   1      28.122   5.055  66.781  0.00  0.00    +0.142 HD
ENDBRANCH   1   2
BRANCH   1   4
ATOM      4  CB  THR A   1      27.526   7.023  65.048  0.00  0.00    +0.134 C 
ATOM      5  CG2 THR A   1      27.377   7.797  63.760  0.00  0.00    +0.034 C 
BRANCH   4   6
ATOM      6  OG1 THR A   1      26.417   7.331  65.887  0.00  0.00    -0.383 OA
ATOM      7  HG1 THR A   1      26.411   8.302  66.080  0.00  0.00    +0.210 HD
ENDBRANCH   4   6
ENDBRANCH   1   4
BRANCH   1   8
ATOM      8  C   THR A   1      28.738   5.229  63.896  0.00  0.00    +0.227 C 
ATOM      9  O   THR A   1      29.881   5.414  64.325  0.00  0.00    -0.287 OA
ENDBRANCH   1   8
TORSDOF 4
REMARK  Name = ../refined-set-2016/4kyk/4kyk_pocket.pdb
REMARK  162 active torsions:
REMARK  status: ('A' for Active; 'I' for Inactive)
REMARK    1  A    between atoms: _1  and  _3
REMARK    2  A    between atoms: _3  and  _4
REMARK    3  A    between atoms: _3  and  _6
REMARK    4  A    between atoms: _6  and  _7
REMARK    5  A    between atoms: _7  and  _8
REMARK    6  A    between atoms: _8  and  _9
REMARK    7  A    between atoms: _8  and  _10
REMARK    8  A    between atoms: _9  and  ZN_370
REMARK    9  A    between atoms: _13  and  _15
REMARK   10  A    between atoms: _15  and  _16
REMARK   11  A    between atoms: _15  and  _18
REMARK   12  A    between atoms: _18  and  _19
REMARK   13  A    between atoms: _19  and  _20
REMARK   14  A    between atoms: _22  and  _24
REMARK   15  A    between atoms: _24  and  _25
REMARK   16  A    between atoms: _24  and  _27
REMARK   17  A    between atoms: _27  and  _28
REMARK   18  A    between atoms: _31  and  _33
REMARK   19  A    between atoms: _33  and  _34
REMARK   20  A    between atoms: _33  and  _36
REMARK   21  A    between atoms: _36  and  _37
REMARK   22  A    between atoms: _40  and  _42
REMARK   23  A    between atoms: _42  and  _43
REMARK   24  A    between atoms: _42  and  _45
REMARK   25  A    between atoms: _45  and  _46
REMARK   26  A    between atoms: _53  and  _54
REMARK   27  A    between atoms: _59  and  _61
REMARK   28  A    between atoms: _61  and  _62
REMARK   29  A    between atoms: _65  and  _67
REMARK   30  A    between atoms: _67  and  _68
REMARK   31  A    between atoms: _67  and  _70
REMARK   32  A    between atoms: _70  and  _71
REMARK   33  A    between atoms: _71  and  _72
REMARK   34  A    between atoms: _74  and  _76
REMARK   35  A    between atoms: _76  and  _77
REMARK   36  A    between atoms: _76  and  _79
REMARK   37  A    between atoms: _79  and  _80
REMARK   38  A    between atoms: _80  and  _81
REMARK   39  A    between atoms: _81  and  _82
REMARK   40  A    between atoms: _82  and  _83
REMARK   41  A    between atoms: _87  and  _89
REMARK   42  A    between atoms: _89  and  _90
REMARK   43  A    between atoms: _89  and  _92
REMARK   44  A    between atoms: _92  and  _93
REMARK   45  A    between atoms: _99  and  _101
REMARK   46  A    between atoms: _101  and  _102
REMARK   47  A    between atoms: _101  and  _104
REMARK   48  A    between atoms: _104  and  _105
REMARK   49  A    between atoms: _108  and  _110
REMARK   50  A    between atoms: _110  and  _111
REMARK   51  A    between atoms: _110  and  _113
REMARK   52  A    between atoms: _113  and  _114
REMARK   53  A    between atoms: _120  and  _122
REMARK   54  A    between atoms: _122  and  _123
REMARK   55  A    between atoms: _122  and  _125
REMARK   56  A    between atoms: _125  and  _126
REMARK   57  A    between atoms: _129  and  _131
REMARK   58  A    between atoms: _131  and  _132
REMARK   59  A    between atoms: _131  and  _134
REMARK   60  A    between atoms: _134  and  _135
REMARK   61  A    between atoms: _141  and  _143
REMARK   62  A    between atoms: _143  and  _144
REMARK   63  A    between atoms: _143  and  _146
REMARK   64  A    between atoms: _146  and  _147
REMARK   65  A    between atoms: _147  and  _148
REMARK   66  A    between atoms: _151  and  _153
REMARK   67  A    between atoms: _153  and  _154
REMARK   68  A    between atoms: _153  and  _156
REMARK   69  A    between atoms: _156  and  _157
REMARK   70  A    between atoms: _160  and  _162
REMARK   71  A    between atoms: _162  and  _163
REMARK   72  A    between atoms: _162  and  _165
REMARK   73  A    between atoms: _165  and  _166
REMARK   74  A    between atoms: _170  and  ZN_370
REMARK   75  A    between atoms: _171  and  _173
REMARK   76  A    between atoms: _173  and  _174
REMARK   77  A    between atoms: _173  and  _176
REMARK   78  A    between atoms: _179  and  _181
REMARK   79  A    between atoms: _181  and  _182
REMARK   80  A    between atoms: _181  and  _184
REMARK   81  A    between atoms: _184  and  _185
REMARK   82  A    between atoms: _185  and  _186
REMARK   83  A    between atoms: _186  and  _187
REMARK   84  A    between atoms: _187  and  _188
REMARK   85  A    between atoms: _192  and  _194
REMARK   86  A    between atoms: _194  and  _195
REMARK   87  A    between atoms: _194  and  _197
REMARK   88  A    between atoms: _197  and  _198
REMARK   89  A    between atoms: _198  and  _199
REMARK   90  A    between atoms: _199  and  _200
REMARK   91  A    between atoms: _200  and  _201
REMARK   92  A    between atoms: _206  and  _207
REMARK   93  A    between atoms: _212  and  _214
REMARK   94  A    between atoms: _214  and  _215
REMARK   95  A    between atoms: _214  and  _217
REMARK   96  A    between atoms: _217  and  _218
REMARK   97  A    between atoms: _221  and  _223
REMARK   98  A    between atoms: _223  and  _224
REMARK   99  A    between atoms: _223  and  _226
REMARK  100  A    between atoms: _226  and  _227
REMARK  101  A    between atoms: _230  and  _232
REMARK  102  A    between atoms: _232  and  _233
REMARK  103  A    between atoms: _235  and  _237
REMARK  104  A    between atoms: _237  and  _238
REMARK  105  A    between atoms: _237  and  _240
REMARK  106  A    between atoms: _240  and  _241
REMARK  107  A    between atoms: _241  and  _242
REMARK  108  A    between atoms: _242  and  _243
REMARK  109  A    between atoms: _243  and  _244
REMARK  110  A    between atoms: _248  and  _250
REMARK  111  A    between atoms: _250  and  _251
REMARK  112  A    between atoms: _250  and  _253
REMARK  113  A    between atoms: _253  and  _254
REMARK  114  A    between atoms: _254  and  _255
REMARK  115  A    between atoms: _257  and  _259
REMARK  116  A    between atoms: _259  and  _260
REMARK  117  A    between atoms: _259  and  _262
REMARK  118  A    between atoms: _262  and  _263
REMARK  119  A    between atoms: _263  and  _264
REMARK  120  A    between atoms: _264  and  _265
REMARK  121  A    between atoms: _265  and  _266
REMARK  122  A    between atoms: _270  and  _272
REMARK  123  A    between atoms: _272  and  _273
REMARK  124  A    between atoms: _275  and  _277
REMARK  125  A    between atoms: _277  and  _278
REMARK  126  A    between atoms: _277  and  _280
REMARK  127  A    between atoms: _280  and  _281
REMARK  128  A    between atoms: _284  and  _286
REMARK  129  A    between atoms: _286  and  _287
REMARK  130  A    between atoms: _290  and  _292
REMARK  131  A    between atoms: _292  and  _293
REMARK  132  A    between atoms: _292  and  _295
REMARK  133  A    between atoms: _295  and  _296
REMARK  134  A    between atoms: _302  and  _304
REMARK  135  A    between atoms: _304  and  _305
REMARK  136  A    between atoms: _304  and  _307
REMARK  137  A    between atoms: _307  and  _308
REMARK  138  A    between atoms: _318  and  _320
REMARK  139  A    between atoms: _320  and  _321
REMARK  140  A    between atoms: _320  and  _323
REMARK  141  A    between atoms: _323  and  _324
REMARK  142  A    between atoms: _324  and  _325
REMARK  143  A    between atoms: _325  and  _327
REMARK  144  A    between atoms: _327  and  ZN_370
REMARK  145  A    between atoms: _328  and  _330
REMARK  146  A    between atoms: _330  and  _331
REMARK  147  A    between atoms: _330  and  _333
REMARK  148  A    between atoms: _333  and  _334
REMARK  149  A    between atoms: _337  and  _339
REMARK  150  A    between atoms: _339  and  _340
REMARK  151  A    between atoms: _339  and  _342
REMARK  152  A    between atoms: _342  and  _343
REMARK  153  A    between atoms: _346  and  _348
REMARK  154  A    between atoms: _348  and  _349
REMARK  155  A    between atoms: _352  and  _354
REMARK  156  A    between atoms: _354  and  _355
REMARK  157  A    between atoms: _354  and  _357
REMARK  158  A    between atoms: _357  and  _358
REMARK  159  A    between atoms: _361  and  _363
REMARK  160  A    between atoms: _363  and  _364
REMARK  161  A    between atoms: _363  and  _366
REMARK  162  A    between atoms: _366  and  _367
REMARK                            x       y       z     vdW  Elec       q    Type
REMARK                         _______ _______ _______ _____ _____    ______ ____
ROOT
ATOM      1  C   GLY A   7      16.144  20.470  59.091  0.00  0.00    +0.243 C 
ATOM      2  O   GLY A   7      14.950  20.612  59.168  0.00  0.00    -0.273 OA
ATOM      3  N   LYS A   8      16.706  19.478  58.414  0.00  0.00    -0.297 N 
ATOM      4  H   LYS A   8      17.744  19.413  58.405  0.00  0.00    +0.150 HD
ENDROOT
BRANCH   1   5
ATOM      5  CA  GLY A   7      17.086  21.446  59.757  0.00  0.00    +0.176 C 
BRANCH   5   8
ATOM      6  C   ASP A   6      16.170  22.179  61.861  0.00  0.00    +0.241 C 
ATOM      7  O   ASP A   6      16.170  21.034  62.313  0.00  0.00    -0.273 OA
ATOM      8  N   GLY A   7      16.472  22.448  60.606  0.00  0.00    -0.295 N 
ATOM      9  H   GLY A   7      16.267  23.392  60.220  0.00  0.00    +0.150 HD
BRANCH   6  10
ATOM     10  CA  ASP A   6      15.777  23.377  62.718  0.00  0.00    +0.160 C 
BRANCH  10  12
ATOM     11  C   ASP A   5      13.404  23.015  63.250  0.00  0.00    +0.241 C 
ATOM     12  N   ASP A   6      14.683  23.024  63.619  0.00  0.00    -0.297 N 
ATOM     13  H   ASP A   6      14.915  22.766  64.599  0.00  0.00    +0.150 HD
ATOM     14  O   ASP A   5      13.008  23.388  62.146  0.00  0.00    -0.273 OA
BRANCH  11  15
ATOM     15  CA  ASP A   5      12.403  22.524  64.278  0.00  0.00    +0.160 C 
BRANCH  15  17
ATOM     16  C   PRO A   4      13.106  20.841  65.926  0.00  0.00    +0.241 C 
ATOM     17  N   ASP A   5      13.028  22.116  65.519  0.00  0.00    -0.297 N 
ATOM     18  H   ASP A   5      13.439  22.852  66.128  0.00  0.00    +0.150 HD
ATOM     19  O   PRO A   4      12.881  19.898  65.179  0.00  0.00    -0.273 OA
BRANCH  16  25
ATOM     20  C   LYS A   3      15.446  22.194  67.361  0.00  0.00    +0.244 C 
ATOM     21  N   PRO A   4      14.331  21.745  67.958  0.00  0.00    -0.272 N 
ATOM     22  CD  PRO A   4      13.705  22.256  69.176  0.00  0.00    +0.094 C 
ATOM     23  CG  PRO A   4      12.288  21.843  68.986  0.00  0.00    +0.024 C 
ATOM     24  CB  PRO A   4      12.351  20.525  68.348  0.00  0.00    +0.031 C 
ATOM     25  CA  PRO A   4      13.538  20.644  67.384  0.00  0.00    +0.152 C 
ATOM     26  O   LYS A   3      15.784  21.821  66.240  0.00  0.00    -0.273 OA
BRANCH  20  27
ATOM     27  CA  LYS A   3      16.312  23.207  68.127  0.00  0.00    +0.149 C 
BRANCH  27  30
ATOM     28  C   LYS A   2      18.344  21.917  68.087  0.00  0.00    +0.241 C 
ATOM     29  O   LYS A   2      17.857  21.075  68.844  0.00  0.00    -0.273 OA
ATOM     30  N   LYS A   3      17.690  23.015  67.736  0.00  0.00    -0.297 N 
ATOM     31  H   LYS A   3      18.173  23.745  67.174  0.00  0.00    +0.150 HD
BRANCH  28  32
ATOM     32  CA  LYS A   2      19.765  21.766  67.550  0.00  0.00    +0.149 C 
BRANCH  32  34
ATOM     33  C   VAL A   1      21.795  22.558  68.658  0.00  0.00    +0.238 C 
ATOM     34  N   LYS A   2      20.676  21.836  68.682  0.00  0.00    -0.297 N 
ATOM     35  H   LYS A   2      20.445  21.301  69.544  0.00  0.00    +0.150 HD
ATOM     36  O   VAL A   1      22.178  23.189  67.665  0.00  0.00    -0.274 OA
BRANCH  33  37
ATOM     37  CA  VAL A   1      22.611  22.550  69.942  0.00  0.00    +0.145 C 
BRANCH  37  38
ATOM     38  CB  VAL A   1      23.308  21.180  70.059  0.00  0.00    +0.025 C 
ATOM     39  CG2 VAL A   1      24.157  21.114  71.312  0.00  0.00    +0.002 C 
ATOM     40  CG1 VAL A   1      24.151  20.887  68.828  0.00  0.00    +0.002 C 
ENDBRANCH  37  38
BRANCH  37  41
ATOM     41  N   VAL A   1      21.702  22.776  71.054  0.00  0.00    -0.238 NA
ATOM     42  H   VAL A   1      21.117  21.982  71.386  0.00  0.00    +0.142 HD
ENDBRANCH  37  41
ENDBRANCH  33  37
ENDBRANCH  32  34
BRANCH  32  43
ATOM     43  CB  LYS A   2      19.906  20.429  66.819  0.00  0.00    +0.029 C 
BRANCH  43  44
ATOM     44  CG  LYS A   2      19.182  20.385  65.478  0.00  0.00    +0.000 C 
BRANCH  44  45
ATOM     45  CD  LYS A   2      18.600  19.008  65.225  0.00  0.00    -0.024 C 
BRANCH  45  46
ATOM     46  CE  LYS A   2      17.660  18.992  64.029  0.00  0.00    -0.086 C 
BRANCH  46  47
ATOM     47  NZ  LYS A   2      16.292  19.481  64.346  0.00  0.00    +0.380 N 
ATOM     48  HZ1 LYS A   2      15.872  18.879  65.082  0.00  0.00    -0.089 HD
ATOM     49  HZ2 LYS A   2      16.346  20.462  64.688  0.00  0.00    -0.089 HD
ATOM     50  HZ3 LYS A   2      15.704  19.444  63.489  0.00  0.00    -0.089 HD
ENDBRANCH  46  47
ENDBRANCH  45  46
ENDBRANCH  44  45
ENDBRANCH  43  44
ENDBRANCH  32  43
ENDBRANCH  28  32
ENDBRANCH  27  30
BRANCH  27  51
ATOM     51  CB  LYS A   3      15.882  24.642  67.824  0.00  0.00    +0.029 C 
BRANCH  51  52
ATOM     52  CG  LYS A   3      16.483  25.710  68.746  0.00  0.00    +0.000 C 
BRANCH  52  53
ATOM     53  CD  LYS A   3      15.714  25.826  70.056  0.00  0.00    -0.024 C 
BRANCH  53  54
ATOM     54  CE  LYS A   3      16.170  27.017  70.921  0.00  0.00    -0.086 C 
BRANCH  54  55
ATOM     55  NZ  LYS A   3      15.756  28.326  70.345  0.00  0.00    +0.380 N 
ATOM     56  HZ1 LYS A   3      16.086  29.095  70.963  0.00  0.00    -0.089 HD
ATOM     57  HZ2 LYS A   3      14.719  28.359  70.272  0.00  0.00    -0.089 HD
ATOM     58  HZ3 LYS A   3      16.175  28.435  69.399  0.00  0.00    -0.089 HD
ENDBRANCH  54  55
ENDBRANCH  53  54
ENDBRANCH  52  53
ENDBRANCH  51  52
ENDBRANCH  27  51
ENDBRANCH  20  27
ENDBRANCH  16  25
ENDBRANCH  15  17
BRANCH  15  59
ATOM     59  CB  ASP A   5      11.466  23.662  64.627  0.00  0.00    +0.143 C 
BRANCH  59  60
ATOM     60  CG  ASP A   5      10.367  23.863  63.615  0.00  0.00    +0.367 C 
ATOM     61  OD2 ASP A   5       9.601  22.897  63.386  0.00  0.00    -0.246 OA
ATOM     62  OD1 ASP A   5      10.277  24.971  63.035  0.00  0.00    -0.246 OA
ENDBRANCH  59  60
ENDBRANCH  15  59
ENDBRANCH  11  15
ENDBRANCH  10  12
BRANCH  10  63
ATOM     63  CB  ASP A   6      16.978  23.860  63.532  0.00  0.00    +0.143 C 
BRANCH  63  64
ATOM     64  CG  ASP A   6      16.806  25.276  64.048  0.00  0.00    +0.367 C 
ATOM     65  OD2 ASP A   6      17.379  25.585  65.113  0.00  0.00    -0.246 OA
ATOM     66  OD1 ASP A   6      16.129  26.088  63.381  0.00  0.00    -0.246 OA
ENDBRANCH  63  64
ENDBRANCH  10  63
ENDBRANCH   6  10
ENDBRANCH   5   8
ENDBRANCH   1   5
BRANCH   3  67
ATOM     67  CA  LYS A   8      15.949  18.482  57.688  0.00  0.00    +0.149 C 
BRANCH  67  68
ATOM     68  C   LYS A   8      15.200  17.565  58.618  0.00  0.00    +0.241 C 
ATOM     69  N   MET A   9      15.798  17.223  59.759  0.00  0.00    -0.297 N 
ATOM     70  H   MET A   9      16.738  17.607  59.984  0.00  0.00    +0.150 HD
ATOM     71  O   LYS A   8      14.094  17.146  58.307  0.00  0.00    -0.273 OA
BRANCH  69  72
ATOM     72  CA  MET A   9      15.140  16.307  60.703  0.00  0.00    +0.149 C 
BRANCH  72  73
ATOM     73  C   MET A   9      14.437  17.086  61.785  0.00  0.00    +0.241 C 
ATOM     74  O   MET A   9      14.934  17.217  62.901  0.00  0.00    -0.273 OA
ATOM     75  N   LYS A  10      13.239  17.576  61.469  0.00  0.00    -0.297 N 
ATOM     76  H   LYS A  10      12.867  17.421  60.510  0.00  0.00    +0.150 HD
BRANCH  75  77
ATOM     77  CA  LYS A  10      12.439  18.318  62.421  0.00  0.00    +0.149 C 
BRANCH  77  78
ATOM     78  C   LYS A  10      11.756  17.320  63.341  0.00  0.00    +0.241 C 
ATOM     79  N   GLY A  11      11.628  17.690  64.608  0.00  0.00    -0.295 N 
ATOM     80  H   GLY A  11      12.046  18.591  64.918  0.00  0.00    +0.150 HD
ATOM     81  O   LYS A  10      11.405  16.227  62.914  0.00  0.00    -0.273 OA
BRANCH  79  82
ATOM     82  CA  GLY A  11      10.926  16.878  65.565  0.00  0.00    +0.176 C 
BRANCH  82  83
ATOM     83  C   GLY A  11      11.919  16.150  66.422  0.00  0.00    +0.243 C 
ATOM     84  O   GLY A  11      11.545  15.322  67.231  0.00  0.00    -0.273 OA
ATOM     85  N   LEU A  12      13.193  16.470  66.240  0.00  0.00    -0.297 N 
ATOM     86  H   LEU A  12      13.426  17.188  65.525  0.00  0.00    +0.150 HD
BRANCH  85  87
ATOM     87  CA  LEU A  12      14.282  15.864  66.993  0.00  0.00    +0.149 C 
BRANCH  87  88
ATOM     88  C   LEU A  12      15.242  16.958  67.423  0.00  0.00    +0.241 C 
ATOM     89  N   ALA A  13      15.685  16.945  68.680  0.00  0.00    -0.297 N 
ATOM     90  H   ALA A  13      15.432  16.153  69.305  0.00  0.00    +0.150 HD
ATOM     91  O   LEU A  12      15.590  17.798  66.607  0.00  0.00    -0.273 OA
BRANCH  89  92
ATOM     92  CA  ALA A  13      16.519  18.025  69.190  0.00  0.00    +0.149 C 
ATOM     93  CB  ALA A  13      15.719  18.931  70.098  0.00  0.00    +0.031 C 
BRANCH  92  94
ATOM     94  C   ALA A  13      17.751  17.517  69.923  0.00  0.00    +0.241 C 
ATOM     95  O   ALA A  13      17.835  16.342  70.259  0.00  0.00    -0.273 OA
ATOM     96  N   PHE A  14      18.697  18.431  70.157  0.00  0.00    -0.298 N 
ATOM     97  H   PHE A  14      18.584  19.374  69.732  0.00  0.00    +0.150 HD
BRANCH  96  98
ATOM     98  CA  PHE A  14      19.872  18.184  70.969  0.00  0.00    +0.141 C 
BRANCH  98  99
ATOM     99  C   PHE A  14      20.027  19.369  71.891  0.00  0.00    +0.227 C 
ATOM    100  O   PHE A  14      20.108  20.494  71.426  0.00  0.00    -0.286 OA
ENDBRANCH  98  99
BRANCH  98 101
ATOM    101  CB  PHE A  14      21.121  18.092  70.090  0.00  0.00    +0.054 C 
BRANCH 101 102
ATOM    102  CG  PHE A  14      21.242  16.795  69.337  0.00  0.00    -0.020 A 
ATOM    103  CD2 PHE A  14      21.785  15.676  69.945  0.00  0.00    -0.004 A 
ATOM    104  CE2 PHE A  14      21.894  14.481  69.261  0.00  0.00    -0.000 A 
ATOM    105  CZ  PHE A  14      21.457  14.385  67.952  0.00  0.00    -0.000 A 
ATOM    106  CE1 PHE A  14      20.906  15.489  67.335  0.00  0.00    -0.000 A 
ATOM    107  CD1 PHE A  14      20.795  16.692  68.032  0.00  0.00    -0.004 A 
ENDBRANCH 101 102
ENDBRANCH  98 101
ENDBRANCH  96  98
ENDBRANCH  92  94
ENDBRANCH  89  92
ENDBRANCH  87  88
BRANCH  87 108
ATOM    108  CB  LEU A  12      15.046  14.905  66.089  0.00  0.00    +0.029 C 
BRANCH 108 109
ATOM    109  CG  LEU A  12      16.264  14.303  66.782  0.00  0.00    +0.002 C 
ATOM    110  CD2 LEU A  12      15.814  13.096  67.567  0.00  0.00    +0.000 C 
ATOM    111  CD1 LEU A  12      17.371  13.933  65.813  0.00  0.00    +0.000 C 
ENDBRANCH 108 109
ENDBRANCH  87 108
ENDBRANCH  85  87
ENDBRANCH  82  83
ENDBRANCH  79  82
ENDBRANCH  77  78
BRANCH  77 112
ATOM    112  CB  LYS A  10      11.406  19.195  61.686  0.00  0.00    +0.029 C 
BRANCH 112 113
ATOM    113  CG  LYS A  10      12.043  20.146  60.666  0.00  0.00    +0.000 C 
BRANCH 113 114
ATOM    114  CD  LYS A  10      11.026  21.114  60.094  0.00  0.00    -0.024 C 
BRANCH 114 115
ATOM    115  CE  LYS A  10      11.653  22.068  59.095  0.00  0.00    -0.086 C 
BRANCH 115 116
ATOM    116  NZ  LYS A  10      12.840  22.733  59.687  0.00  0.00    +0.380 N 
ATOM    117  HZ1 LYS A  10      12.551  23.268  60.531  0.00  0.00    -0.089 HD
ATOM    118  HZ2 LYS A  10      13.542  22.013  59.954  0.00  0.00    -0.089 HD
ATOM    119  HZ3 LYS A  10      13.256  23.382  58.989  0.00  0.00    -0.089 HD
ENDBRANCH 115 116
ENDBRANCH 114 115
ENDBRANCH 113 114
ENDBRANCH 112 113
ENDBRANCH  77 112
ENDBRANCH  75  77
ENDBRANCH  72  73
BRANCH  72 120
ATOM    120  CB  MET A   9      16.166  15.355  61.336  0.00  0.00    +0.041 C 
BRANCH 120 121
ATOM    121  CG  MET A   9      16.923  14.544  60.288  0.00  0.00    +0.060 C 
BRANCH 121 122
ATOM    122  SD  MET A   9      15.869  13.397  59.429  0.00  0.00    -0.139 S 
ATOM    123  CE  MET A   9      16.892  12.827  58.068  0.00  0.00    +0.069 C 
ENDBRANCH 121 122
ENDBRANCH 120 121
ENDBRANCH  72 120
ENDBRANCH  69  72
ENDBRANCH  67  68
BRANCH  67 124
ATOM    124  CB  LYS A   8      16.897  17.631  56.844  0.00  0.00    +0.029 C 
BRANCH 124 125
ATOM    125  CG  LYS A   8      16.231  16.557  55.991  0.00  0.00    +0.000 C 
BRANCH 125 126
ATOM    126  CD  LYS A   8      15.458  17.202  54.875  0.00  0.00    -0.024 C 
BRANCH 126 127
ATOM    127  CE  LYS A   8      15.109  16.207  53.814  0.00  0.00    -0.086 C 
BRANCH 127 128
ATOM    128  NZ  LYS A   8      14.497  15.006  54.436  0.00  0.00    +0.380 N 
ATOM    129  HZ1 LYS A   8      15.173  14.579  55.101  0.00  0.00    -0.089 HD
ATOM    130  HZ2 LYS A   8      13.634  15.283  54.947  0.00  0.00    -0.089 HD
ATOM    131  HZ3 LYS A   8      14.256  14.318  53.695  0.00  0.00    -0.089 HD
ENDBRANCH 127 128
ENDBRANCH 126 127
ENDBRANCH 125 126
ENDBRANCH 124 125
ENDBRANCH  67 124
ENDBRANCH   3  67
TORSDOF 59
REMARK  Name = ../refined-set-2016/4kyk/4kyk_pocket.pdb
REMARK  162 active torsions:
REMARK  status: ('A' for Active; 'I' for Inactive)
REMARK    1  A    between atoms: _1  and  _3
REMARK    2  A    between atoms: _3  and  _4
REMARK    3  A    between atoms: _3  and  _6
REMARK    4  A    between atoms: _6  and  _7
REMARK    5  A    between atoms: _7  and  _8
REMARK    6  A    between atoms: _8  and  _9
REMARK    7  A    between atoms: _8  and  _10
REMARK    8  A    between atoms: _9  and  ZN_370
REMARK    9  A    between atoms: _13  and  _15
REMARK   10  A    between atoms: _15  and  _16
REMARK   11  A    between atoms: _15  and  _18
REMARK   12  A    between atoms: _18  and  _19
REMARK   13  A    between atoms: _19  and  _20
REMARK   14  A    between atoms: _22  and  _24
REMARK   15  A    between atoms: _24  and  _25
REMARK   16  A    between atoms: _24  and  _27
REMARK   17  A    between atoms: _27  and  _28
REMARK   18  A    between atoms: _31  and  _33
REMARK   19  A    between atoms: _33  and  _34
REMARK   20  A    between atoms: _33  and  _36
REMARK   21  A    between atoms: _36  and  _37
REMARK   22  A    between atoms: _40  and  _42
REMARK   23  A    between atoms: _42  and  _43
REMARK   24  A    between atoms: _42  and  _45
REMARK   25  A    between atoms: _45  and  _46
REMARK   26  A    between atoms: _53  and  _54
REMARK   27  A    between atoms: _59  and  _61
REMARK   28  A    between atoms: _61  and  _62
REMARK   29  A    between atoms: _65  and  _67
REMARK   30  A    between atoms: _67  and  _68
REMARK   31  A    between atoms: _67  and  _70
REMARK   32  A    between atoms: _70  and  _71
REMARK   33  A    between atoms: _71  and  _72
REMARK   34  A    between atoms: _74  and  _76
REMARK   35  A    between atoms: _76  and  _77
REMARK   36  A    between atoms: _76  and  _79
REMARK   37  A    between atoms: _79  and  _80
REMARK   38  A    between atoms: _80  and  _81
REMARK   39  A    between atoms: _81  and  _82
REMARK   40  A    between atoms: _82  and  _83
REMARK   41  A    between atoms: _87  and  _89
REMARK   42  A    between atoms: _89  and  _90
REMARK   43  A    between atoms: _89  and  _92
REMARK   44  A    between atoms: _92  and  _93
REMARK   45  A    between atoms: _99  and  _101
REMARK   46  A    between atoms: _101  and  _102
REMARK   47  A    between atoms: _101  and  _104
REMARK   48  A    between atoms: _104  and  _105
REMARK   49  A    between atoms: _108  and  _110
REMARK   50  A    between atoms: _110  and  _111
REMARK   51  A    between atoms: _110  and  _113
REMARK   52  A    between atoms: _113  and  _114
REMARK   53  A    between atoms: _120  and  _122
REMARK   54  A    between atoms: _122  and  _123
REMARK   55  A    between atoms: _122  and  _125
REMARK   56  A    between atoms: _125  and  _126
REMARK   57  A    between atoms: _129  and  _131
REMARK   58  A    between atoms: _131  and  _132
REMARK   59  A    between atoms: _131  and  _134
REMARK   60  A    between atoms: _134  and  _135
REMARK   61  A    between atoms: _141  and  _143
REMARK   62  A    between atoms: _143  and  _144
REMARK   63  A    between atoms: _143  and  _146
REMARK   64  A    between atoms: _146  and  _147
REMARK   65  A    between atoms: _147  and  _148
REMARK   66  A    between atoms: _151  and  _153
REMARK   67  A    between atoms: _153  and  _154
REMARK   68  A    between atoms: _153  and  _156
REMARK   69  A    between atoms: _156  and  _157
REMARK   70  A    between atoms: _160  and  _162
REMARK   71  A    between atoms: _162  and  _163
REMARK   72  A    between atoms: _162  and  _165
REMARK   73  A    between atoms: _165  and  _166
REMARK   74  A    between atoms: _170  and  ZN_370
REMARK   75  A    between atoms: _171  and  _173
REMARK   76  A    between atoms: _173  and  _174
REMARK   77  A    between atoms: _173  and  _176
REMARK   78  A    between atoms: _179  and  _181
REMARK   79  A    between atoms: _181  and  _182
REMARK   80  A    between atoms: _181  and  _184
REMARK   81  A    between atoms: _184  and  _185
REMARK   82  A    between atoms: _185  and  _186
REMARK   83  A    between atoms: _186  and  _187
REMARK   84  A    between atoms: _187  and  _188
REMARK   85  A    between atoms: _192  and  _194
REMARK   86  A    between atoms: _194  and  _195
REMARK   87  A    between atoms: _194  and  _197
REMARK   88  A    between atoms: _197  and  _198
REMARK   89  A    between atoms: _198  and  _199
REMARK   90  A    between atoms: _199  and  _200
REMARK   91  A    between atoms: _200  and  _201
REMARK   92  A    between atoms: _206  and  _207
REMARK   93  A    between atoms: _212  and  _214
REMARK   94  A    between atoms: _214  and  _215
REMARK   95  A    between atoms: _214  and  _217
REMARK   96  A    between atoms: _217  and  _218
REMARK   97  A    between atoms: _221  and  _223
REMARK   98  A    between atoms: _223  and  _224
REMARK   99  A    between atoms: _223  and  _226
REMARK  100  A    between atoms: _226  and  _227
REMARK  101  A    between atoms: _230  and  _232
REMARK  102  A    between atoms: _232  and  _233
REMARK  103  A    between atoms: _235  and  _237
REMARK  104  A    between atoms: _237  and  _238
REMARK  105  A    between atoms: _237  and  _240
REMARK  106  A    between atoms: _240  and  _241
REMARK  107  A    between atoms: _241  and  _242
REMARK  108  A    between atoms: _242  and  _243
REMARK  109  A    between atoms: _243  and  _244
REMARK  110  A    between atoms: _248  and  _250
REMARK  111  A    between atoms: _250  and  _251
REMARK  112  A    between atoms: _250  and  _253
REMARK  113  A    between atoms: _253  and  _254
REMARK  114  A    between atoms: _254  and  _255
REMARK  115  A    between atoms: _257  and  _259
REMARK  116  A    between atoms: _259  and  _260
REMARK  117  A    between atoms: _259  and  _262
REMARK  118  A    between atoms: _262  and  _263
REMARK  119  A    between atoms: _263  and  _264
REMARK  120  A    between atoms: _264  and  _265
REMARK  121  A    between atoms: _265  and  _266
REMARK  122  A    between atoms: _270  and  _272
REMARK  123  A    between atoms: _272  and  _273
REMARK  124  A    between atoms: _275  and  _277
REMARK  125  A    between atoms: _277  and  _278
REMARK  126  A    between atoms: _277  and  _280
REMARK  127  A    between atoms: _280  and  _281
REMARK  128  A    between atoms: _284  and  _286
REMARK  129  A    between atoms: _286  and  _287
REMARK  130  A    between atoms: _290  and  _292
REMARK  131  A    between atoms: _292  and  _293
REMARK  132  A    between atoms: _292  and  _295
REMARK  133  A    between atoms: _295  and  _296
REMARK  134  A    between atoms: _302  and  _304
REMARK  135  A    between atoms: _304  and  _305
REMARK  136  A    between atoms: _304  and  _307
REMARK  137  A    between atoms: _307  and  _308
REMARK  138  A    between atoms: _318  and  _320
REMARK  139  A    between atoms: _320  and  _321
REMARK  140  A    between atoms: _320  and  _323
REMARK  141  A    between atoms: _323  and  _324
REMARK  142  A    between atoms: _324  and  _325
REMARK  143  A    between atoms: _325  and  _327
REMARK  144  A    between atoms: _327  and  ZN_370
REMARK  145  A    between atoms: _328  and  _330
REMARK  146  A    between atoms: _330  and  _331
REMARK  147  A    between atoms: _330  and  _333
REMARK  148  A    between atoms: _333  and  _334
REMARK  149  A    between atoms: _337  and  _339
REMARK  150  A    between atoms: _339  and  _340
REMARK  151  A    between atoms: _339  and  _342
REMARK  152  A    between atoms: _342  and  _343
REMARK  153  A    between atoms: _346  and  _348
REMARK  154  A    between atoms: _348  and  _349
REMARK  155  A    between atoms: _352  and  _354
REMARK  156  A    between atoms: _354  and  _355
REMARK  157  A    between atoms: _354  and  _357
REMARK  158  A    between atoms: _357  and  _358
REMARK  159  A    between atoms: _361  and  _363
REMARK  160  A    between atoms: _363  and  _364
REMARK  161  A    between atoms: _363  and  _366
REMARK  162  A    between atoms: _366  and  _367
REMARK                            x       y       z     vdW  Elec       q    Type
REMARK                         _______ _______ _______ _____ _____    ______ ____
ROOT
ATOM      1  CG  TRP A   1      26.014  17.404  71.966  0.00  0.00    -0.002 A 
ATOM      2  CD1 TRP A   1      26.702  18.435  72.548  0.00  0.00    +0.068 A 
ATOM      3  NE1 TRP A   1      27.261  19.227  71.575  0.00  0.00    -0.352 N 
ATOM      4  HE1 TRP A   1      27.843  20.072  71.745  0.00  0.00    +0.166 HD
ATOM      5  CE2 TRP A   1      26.927  18.722  70.340  0.00  0.00    +0.056 A 
ATOM      6  CZ2 TRP A   1      27.253  19.176  69.060  0.00  0.00    +0.017 A 
ATOM      7  CH2 TRP A   1      26.778  18.462  67.995  0.00  0.00    +0.001 A 
ATOM      8  CZ3 TRP A   1      25.987  17.318  68.180  0.00  0.00    +0.000 A 
ATOM      9  CE3 TRP A   1      25.664  16.870  69.441  0.00  0.00    +0.001 A 
ATOM     10  CD2 TRP A   1      26.141  17.577  70.551  0.00  0.00    +0.013 A 
ENDROOT
BRANCH   1  11
ATOM     11  CB  TRP A   1      25.253  16.326  72.655  0.00  0.00    +0.053 C 
BRANCH  11  12
ATOM     12  CA  TRP A   1      24.970  16.627  74.116  0.00  0.00    +0.137 C 
BRANCH  12  13
ATOM     13  N   TRP A   1      26.204  16.581  74.888  0.00  0.00    -0.239 NA
ATOM     14  H   TRP A   1      27.032  16.077  74.511  0.00  0.00    +0.142 HD
ENDBRANCH  12  13
BRANCH  12  15
ATOM     15  C   TRP A   1      23.955  15.632  74.628  0.00  0.00    +0.224 C 
ATOM     16  O   TRP A   1      24.298  14.508  74.993  0.00  0.00    -0.287 OA
ENDBRANCH  12  15
ENDBRANCH  11  12
ENDBRANCH   1  11
TORSDOF 4
REMARK  Name = ../refined-set-2016/4kyk/4kyk_pocket.pdb
REMARK  162 active torsions:
REMARK  status: ('A' for Active; 'I' for Inactive)
REMARK    1  A    between atoms: _1  and  _3
REMARK    2  A    between atoms: _3  and  _4
REMARK    3  A    between atoms: _3  and  _6
REMARK    4  A    between atoms: _6  and  _7
REMARK    5  A    between atoms: _7  and  _8
REMARK    6  A    between atoms: _8  and  _9
REMARK    7  A    between atoms: _8  and  _10
REMARK    8  A    between atoms: _9  and  ZN_370
REMARK    9  A    between atoms: _13  and  _15
REMARK   10  A    between atoms: _15  and  _16
REMARK   11  A    between atoms: _15  and  _18
REMARK   12  A    between atoms: _18  and  _19
REMARK   13  A    between atoms: _19  and  _20
REMARK   14  A    between atoms: _22  and  _24
REMARK   15  A    between atoms: _24  and  _25
REMARK   16  A    between atoms: _24  and  _27
REMARK   17  A    between atoms: _27  and  _28
REMARK   18  A    between atoms: _31  and  _33
REMARK   19  A    between atoms: _33  and  _34
REMARK   20  A    between atoms: _33  and  _36
REMARK   21  A    between atoms: _36  and  _37
REMARK   22  A    between atoms: _40  and  _42
REMARK   23  A    between atoms: _42  and  _43
REMARK   24  A    between atoms: _42  and  _45
REMARK   25  A    between atoms: _45  and  _46
REMARK   26  A    between atoms: _53  and  _54
REMARK   27  A    between atoms: _59  and  _61
REMARK   28  A    between atoms: _61  and  _62
REMARK   29  A    between atoms: _65  and  _67
REMARK   30  A    between atoms: _67  and  _68
REMARK   31  A    between atoms: _67  and  _70
REMARK   32  A    between atoms: _70  and  _71
REMARK   33  A    between atoms: _71  and  _72
REMARK   34  A    between atoms: _74  and  _76
REMARK   35  A    between atoms: _76  and  _77
REMARK   36  A    between atoms: _76  and  _79
REMARK   37  A    between atoms: _79  and  _80
REMARK   38  A    between atoms: _80  and  _81
REMARK   39  A    between atoms: _81  and  _82
REMARK   40  A    between atoms: _82  and  _83
REMARK   41  A    between atoms: _87  and  _89
REMARK   42  A    between atoms: _89  and  _90
REMARK   43  A    between atoms: _89  and  _92
REMARK   44  A    between atoms: _92  and  _93
REMARK   45  A    between atoms: _99  and  _101
REMARK   46  A    between atoms: _101  and  _102
REMARK   47  A    between atoms: _101  and  _104
REMARK   48  A    between atoms: _104  and  _105
REMARK   49  A    between atoms: _108  and  _110
REMARK   50  A    between atoms: _110  and  _111
REMARK   51  A    between atoms: _110  and  _113
REMARK   52  A    between atoms: _113  and  _114
REMARK   53  A    between atoms: _120  and  _122
REMARK   54  A    between atoms: _122  and  _123
REMARK   55  A    between atoms: _122  and  _125
REMARK   56  A    between atoms: _125  and  _126
REMARK   57  A    between atoms: _129  and  _131
REMARK   58  A    between atoms: _131  and  _132
REMARK   59  A    between atoms: _131  and  _134
REMARK   60  A    between atoms: _134  and  _135
REMARK   61  A    between atoms: _141  and  _143
REMARK   62  A    between atoms: _143  and  _144
REMARK   63  A    between atoms: _143  and  _146
REMARK   64  A    between atoms: _146  and  _147
REMARK   65  A    between atoms: _147  and  _148
REMARK   66  A    between atoms: _151  and  _153
REMARK   67  A    between atoms: _153  and  _154
REMARK   68  A    between atoms: _153  and  _156
REMARK   69  A    between atoms: _156  and  _157
REMARK   70  A    between atoms: _160  and  _162
REMARK   71  A    between atoms: _162  and  _163
REMARK   72  A    between atoms: _162  and  _165
REMARK   73  A    between atoms: _165  and  _166
REMARK   74  A    between atoms: _170  and  ZN_370
REMARK   75  A    between atoms: _171  and  _173
REMARK   76  A    between atoms: _173  and  _174
REMARK   77  A    between atoms: _173  and  _176
REMARK   78  A    between atoms: _179  and  _181
REMARK   79  A    between atoms: _181  and  _182
REMARK   80  A    between atoms: _181  and  _184
REMARK   81  A    between atoms: _184  and  _185
REMARK   82  A    between atoms: _185  and  _186
REMARK   83  A    between atoms: _186  and  _187
REMARK   84  A    between atoms: _187  and  _188
REMARK   85  A    between atoms: _192  and  _194
REMARK   86  A    between atoms: _194  and  _195
REMARK   87  A    between atoms: _194  and  _197
REMARK   88  A    between atoms: _197  and  _198
REMARK   89  A    between atoms: _198  and  _199
REMARK   90  A    between atoms: _199  and  _200
REMARK   91  A    between atoms: _200  and  _201
REMARK   92  A    between atoms: _206  and  _207
REMARK   93  A    between atoms: _212  and  _214
REMARK   94  A    between atoms: _214  and  _215
REMARK   95  A    between atoms: _214  and  _217
REMARK   96  A    between atoms: _217  and  _218
REMARK   97  A    between atoms: _221  and  _223
REMARK   98  A    between atoms: _223  and  _224
REMARK   99  A    between atoms: _223  and  _226
REMARK  100  A    between atoms: _226  and  _227
REMARK  101  A    between atoms: _230  and  _232
REMARK  102  A    between atoms: _232  and  _233
REMARK  103  A    between atoms: _235  and  _237
REMARK  104  A    between atoms: _237  and  _238
REMARK  105  A    between atoms: _237  and  _240
REMARK  106  A    between atoms: _240  and  _241
REMARK  107  A    between atoms: _241  and  _242
REMARK  108  A    between atoms: _242  and  _243
REMARK  109  A    between atoms: _243  and  _244
REMARK  110  A    between atoms: _248  and  _250
REMARK  111  A    between atoms: _250  and  _251
REMARK  112  A    between atoms: _250  and  _253
REMARK  113  A    between atoms: _253  and  _254
REMARK  114  A    between atoms: _254  and  _255
REMARK  115  A    between atoms: _257  and  _259
REMARK  116  A    between atoms: _259  and  _260
REMARK  117  A    between atoms: _259  and  _262
REMARK  118  A    between atoms: _262  and  _263
REMARK  119  A    between atoms: _263  and  _264
REMARK  120  A    between atoms: _264  and  _265
REMARK  121  A    between atoms: _265  and  _266
REMARK  122  A    between atoms: _270  and  _272
REMARK  123  A    between atoms: _272  and  _273
REMARK  124  A    between atoms: _275  and  _277
REMARK  125  A    between atoms: _277  and  _278
REMARK  126  A    between atoms: _277  and  _280
REMARK  127  A    between atoms: _280  and  _281
REMARK  128  A    between atoms: _284  and  _286
REMARK  129  A    between atoms: _286  and  _287
REMARK  130  A    between atoms: _290  and  _292
REMARK  131  A    between atoms: _292  and  _293
REMARK  132  A    between atoms: _292  and  _295
REMARK  133  A    between atoms: _295  and  _296
REMARK  134  A    between atoms: _302  and  _304
REMARK  135  A    between atoms: _304  and  _305
REMARK  136  A    between atoms: _304  and  _307
REMARK  137  A    between atoms: _307  and  _308
REMARK  138  A    between atoms: _318  and  _320
REMARK  139  A    between atoms: _320  and  _321
REMARK  140  A    between atoms: _320  and  _323
REMARK  141  A    between atoms: _323  and  _324
REMARK  142  A    between atoms: _324  and  _325
REMARK  143  A    between atoms: _325  and  _327
REMARK  144  A    between atoms: _327  and  ZN_370
REMARK  145  A    between atoms: _328  and  _330
REMARK  146  A    between atoms: _330  and  _331
REMARK  147  A    between atoms: _330  and  _333
REMARK  148  A    between atoms: _333  and  _334
REMARK  149  A    between atoms: _337  and  _339
REMARK  150  A    between atoms: _339  and  _340
REMARK  151  A    between atoms: _339  and  _342
REMARK  152  A    between atoms: _342  and  _343
REMARK  153  A    between atoms: _346  and  _348
REMARK  154  A    between atoms: _348  and  _349
REMARK  155  A    between atoms: _352  and  _354
REMARK  156  A    between atoms: _354  and  _355
REMARK  157  A    between atoms: _354  and  _357
REMARK  158  A    between atoms: _357  and  _358
REMARK  159  A    between atoms: _361  and  _363
REMARK  160  A    between atoms: _363  and  _364
REMARK  161  A    between atoms: _363  and  _366
REMARK  162  A    between atoms: _366  and  _367
REMARK                            x       y       z     vdW  Elec       q    Type
REMARK                         _______ _______ _______ _____ _____    ______ ____
ROOT
ATOM      1  CA  LEU A   1      13.484  12.170  70.563  0.00  0.00    +0.133 C 
ENDROOT
BRANCH   1   2
ATOM      2  N   LEU A   1      14.152  12.835  71.659  0.00  0.00    -0.239 NA
ATOM      3  H   LEU A   1      14.182  12.380  72.593  0.00  0.00    +0.142 HD
ENDBRANCH   1   2
BRANCH   1   4
ATOM      4  C   LEU A   1      12.133  11.625  70.977  0.00  0.00    +0.224 C 
ATOM      5  O   LEU A   1      11.893  11.321  72.148  0.00  0.00    -0.287 OA
ENDBRANCH   1   4
BRANCH   1   6
ATOM      6  CB  LEU A   1      14.349  11.039  69.997  0.00  0.00    +0.025 C 
BRANCH   6   7
ATOM      7  CG  LEU A   1      14.822   9.867  70.869  0.00  0.00    +0.002 C 
ATOM      8  CD2 LEU A   1      14.005   8.597  70.661  0.00  0.00    +0.000 C 
ATOM      9  CD1 LEU A   1      16.287   9.578  70.585  0.00  0.00    +0.000 C 
ENDBRANCH   6   7
ENDBRANCH   1   6
TORSDOF 4
REMARK  Name = ../refined-set-2016/4kyk/4kyk_pocket.pdb
REMARK  162 active torsions:
REMARK  status: ('A' for Active; 'I' for Inactive)
REMARK    1  A    between atoms: _1  and  _3
REMARK    2  A    between atoms: _3  and  _4
REMARK    3  A    between atoms: _3  and  _6
REMARK    4  A    between atoms: _6  and  _7
REMARK    5  A    between atoms: _7  and  _8
REMARK    6  A    between atoms: _8  and  _9
REMARK    7  A    between atoms: _8  and  _10
REMARK    8  A    between atoms: _9  and  ZN_370
REMARK    9  A    between atoms: _13  and  _15
REMARK   10  A    between atoms: _15  and  _16
REMARK   11  A    between atoms: _15  and  _18
REMARK   12  A    between atoms: _18  and  _19
REMARK   13  A    between atoms: _19  and  _20
REMARK   14  A    between atoms: _22  and  _24
REMARK   15  A    between atoms: _24  and  _25
REMARK   16  A    between atoms: _24  and  _27
REMARK   17  A    between atoms: _27  and  _28
REMARK   18  A    between atoms: _31  and  _33
REMARK   19  A    between atoms: _33  and  _34
REMARK   20  A    between atoms: _33  and  _36
REMARK   21  A    between atoms: _36  and  _37
REMARK   22  A    between atoms: _40  and  _42
REMARK   23  A    between atoms: _42  and  _43
REMARK   24  A    between atoms: _42  and  _45
REMARK   25  A    between atoms: _45  and  _46
REMARK   26  A    between atoms: _53  and  _54
REMARK   27  A    between atoms: _59  and  _61
REMARK   28  A    between atoms: _61  and  _62
REMARK   29  A    between atoms: _65  and  _67
REMARK   30  A    between atoms: _67  and  _68
REMARK   31  A    between atoms: _67  and  _70
REMARK   32  A    between atoms: _70  and  _71
REMARK   33  A    between atoms: _71  and  _72
REMARK   34  A    between atoms: _74  and  _76
REMARK   35  A    between atoms: _76  and  _77
REMARK   36  A    between atoms: _76  and  _79
REMARK   37  A    between atoms: _79  and  _80
REMARK   38  A    between atoms: _80  and  _81
REMARK   39  A    between atoms: _81  and  _82
REMARK   40  A    between atoms: _82  and  _83
REMARK   41  A    between atoms: _87  and  _89
REMARK   42  A    between atoms: _89  and  _90
REMARK   43  A    between atoms: _89  and  _92
REMARK   44  A    between atoms: _92  and  _93
REMARK   45  A    between atoms: _99  and  _101
REMARK   46  A    between atoms: _101  and  _102
REMARK   47  A    between atoms: _101  and  _104
REMARK   48  A    between atoms: _104  and  _105
REMARK   49  A    between atoms: _108  and  _110
REMARK   50  A    between atoms: _110  and  _111
REMARK   51  A    between atoms: _110  and  _113
REMARK   52  A    between atoms: _113  and  _114
REMARK   53  A    between atoms: _120  and  _122
REMARK   54  A    between atoms: _122  and  _123
REMARK   55  A    between atoms: _122  and  _125
REMARK   56  A    between atoms: _125  and  _126
REMARK   57  A    between atoms: _129  and  _131
REMARK   58  A    between atoms: _131  and  _132
REMARK   59  A    between atoms: _131  and  _134
REMARK   60  A    between atoms: _134  and  _135
REMARK   61  A    between atoms: _141  and  _143
REMARK   62  A    between atoms: _143  and  _144
REMARK   63  A    between atoms: _143  and  _146
REMARK   64  A    between atoms: _146  and  _147
REMARK   65  A    between atoms: _147  and  _148
REMARK   66  A    between atoms: _151  and  _153
REMARK   67  A    between atoms: _153  and  _154
REMARK   68  A    between atoms: _153  and  _156
REMARK   69  A    between atoms: _156  and  _157
REMARK   70  A    between atoms: _160  and  _162
REMARK   71  A    between atoms: _162  and  _163
REMARK   72  A    between atoms: _162  and  _165
REMARK   73  A    between atoms: _165  and  _166
REMARK   74  A    between atoms: _170  and  ZN_370
REMARK   75  A    between atoms: _171  and  _173
REMARK   76  A    between atoms: _173  and  _174
REMARK   77  A    between atoms: _173  and  _176
REMARK   78  A    between atoms: _179  and  _181
REMARK   79  A    between atoms: _181  and  _182
REMARK   80  A    between atoms: _181  and  _184
REMARK   81  A    between atoms: _184  and  _185
REMARK   82  A    between atoms: _185  and  _186
REMARK   83  A    between atoms: _186  and  _187
REMARK   84  A    between atoms: _187  and  _188
REMARK   85  A    between atoms: _192  and  _194
REMARK   86  A    between atoms: _194  and  _195
REMARK   87  A    between atoms: _194  and  _197
REMARK   88  A    between atoms: _197  and  _198
REMARK   89  A    between atoms: _198  and  _199
REMARK   90  A    between atoms: _199  and  _200
REMARK   91  A    between atoms: _200  and  _201
REMARK   92  A    between atoms: _206  and  _207
REMARK   93  A    between atoms: _212  and  _214
REMARK   94  A    between atoms: _214  and  _215
REMARK   95  A    between atoms: _214  and  _217
REMARK   96  A    between atoms: _217  and  _218
REMARK   97  A    between atoms: _221  and  _223
REMARK   98  A    between atoms: _223  and  _224
REMARK   99  A    between atoms: _223  and  _226
REMARK  100  A    between atoms: _226  and  _227
REMARK  101  A    between atoms: _230  and  _232
REMARK  102  A    between atoms: _232  and  _233
REMARK  103  A    between atoms: _235  and  _237
REMARK  104  A    between atoms: _237  and  _238
REMARK  105  A    between atoms: _237  and  _240
REMARK  106  A    between atoms: _240  and  _241
REMARK  107  A    between atoms: _241  and  _242
REMARK  108  A    between atoms: _242  and  _243
REMARK  109  A    between atoms: _243  and  _244
REMARK  110  A    between atoms: _248  and  _250
REMARK  111  A    between atoms: _250  and  _251
REMARK  112  A    between atoms: _250  and  _253
REMARK  113  A    between atoms: _253  and  _254
REMARK  114  A    between atoms: _254  and  _255
REMARK  115  A    between atoms: _257  and  _259
REMARK  116  A    between atoms: _259  and  _260
REMARK  117  A    between atoms: _259  and  _262
REMARK  118  A    between atoms: _262  and  _263
REMARK  119  A    between atoms: _263  and  _264
REMARK  120  A    between atoms: _264  and  _265
REMARK  121  A    between atoms: _265  and  _266
REMARK  122  A    between atoms: _270  and  _272
REMARK  123  A    between atoms: _272  and  _273
REMARK  124  A    between atoms: _275  and  _277
REMARK  125  A    between atoms: _277  and  _278
REMARK  126  A    between atoms: _277  and  _280
REMARK  127  A    between atoms: _280  and  _281
REMARK  128  A    between atoms: _284  and  _286
REMARK  129  A    between atoms: _286  and  _287
REMARK  130  A    between atoms: _290  and  _292
REMARK  131  A    between atoms: _292  and  _293
REMARK  132  A    between atoms: _292  and  _295
REMARK  133  A    between atoms: _295  and  _296
REMARK  134  A    between atoms: _302  and  _304
REMARK  135  A    between atoms: _304  and  _305
REMARK  136  A    between atoms: _304  and  _307
REMARK  137  A    between atoms: _307  and  _308
REMARK  138  A    between atoms: _318  and  _320
REMARK  139  A    between atoms: _320  and  _321
REMARK  140  A    between atoms: _320  and  _323
REMARK  141  A    between atoms: _323  and  _324
REMARK  142  A    between atoms: _324  and  _325
REMARK  143  A    between atoms: _325  and  _327
REMARK  144  A    between atoms: _327  and  ZN_370
REMARK  145  A    between atoms: _328  and  _330
REMARK  146  A    between atoms: _330  and  _331
REMARK  147  A    between atoms: _330  and  _333
REMARK  148  A    between atoms: _333  and  _334
REMARK  149  A    between atoms: _337  and  _339
REMARK  150  A    between atoms: _339  and  _340
REMARK  151  A    between atoms: _339  and  _342
REMARK  152  A    between atoms: _342  and  _343
REMARK  153  A    between atoms: _346  and  _348
REMARK  154  A    between atoms: _348  and  _349
REMARK  155  A    between atoms: _352  and  _354
REMARK  156  A    between atoms: _354  and  _355
REMARK  157  A    between atoms: _354  and  _357
REMARK  158  A    between atoms: _357  and  _358
REMARK  159  A    between atoms: _361  and  _363
REMARK  160  A    between atoms: _363  and  _364
REMARK  161  A    between atoms: _363  and  _366
REMARK  162  A    between atoms: _366  and  _367
REMARK                            x       y       z     vdW  Elec       q    Type
REMARK                         _______ _______ _______ _____ _____    ______ ____
ROOT
ATOM      1  C   ILE A   1      11.255   8.320  62.843  0.00  0.00    +0.238 C 
ATOM      2  N   ALA A   2      10.537   7.219  62.628  0.00  0.00    -0.298 N 
ATOM      3  H   ALA A   2      10.013   6.801  63.423  0.00  0.00    +0.150 HD
ATOM      4  O   ILE A   1      11.858   8.916  61.949  0.00  0.00    -0.274 OA
ENDROOT
BRANCH   2   5
ATOM      5  CA  ALA A   2      10.456   6.574  61.314  0.00  0.00    +0.137 C 
ATOM      6  CB  ALA A   2       9.551   5.348  61.374  0.00  0.00    +0.030 C 
BRANCH   5   7
ATOM      7  C   ALA A   2       9.943   7.556  60.279  0.00  0.00    +0.227 C 
ATOM      8  O   ALA A   2      10.398   7.567  59.131  0.00  0.00    -0.286 OA
ENDBRANCH   5   7
ENDBRANCH   2   5
BRANCH   1   9
ATOM      9  CA  ILE A   1      11.324   8.816  64.290  0.00  0.00    +0.145 C 
BRANCH   9  10
ATOM     10  N   ILE A   1      10.002   8.979  64.907  0.00  0.00    -0.238 NA
ATOM     11  H   ILE A   1       9.724   8.362  65.697  0.00  0.00    +0.142 HD
ENDBRANCH   9  10
BRANCH   9  12
ATOM     12  CB  ILE A   1      12.250   7.863  65.084  0.00  0.00    +0.025 C 
ATOM     13  CG2 ILE A   1      13.403   7.426  64.204  0.00  0.00    +0.002 C 
BRANCH  12  14
ATOM     14  CG1 ILE A   1      12.874   8.566  66.287  0.00  0.00    +0.002 C 
ATOM     15  CD1 ILE A   1      14.017   9.532  65.890  0.00  0.00    +0.000 C 
ENDBRANCH  12  14
ENDBRANCH   9  12
ENDBRANCH   1   9
TORSDOF 6
REMARK  Name = ../refined-set-2016/4kyk/4kyk_pocket.pdb
REMARK  162 active torsions:
REMARK  status: ('A' for Active; 'I' for Inactive)
REMARK    1  A    between atoms: _1  and  _3
REMARK    2  A    between atoms: _3  and  _4
REMARK    3  A    between atoms: _3  and  _6
REMARK    4  A    between atoms: _6  and  _7
REMARK    5  A    between atoms: _7  and  _8
REMARK    6  A    between atoms: _8  and  _9
REMARK    7  A    between atoms: _8  and  _10
REMARK    8  A    between atoms: _9  and  ZN_370
REMARK    9  A    between atoms: _13  and  _15
REMARK   10  A    between atoms: _15  and  _16
REMARK   11  A    between atoms: _15  and  _18
REMARK   12  A    between atoms: _18  and  _19
REMARK   13  A    between atoms: _19  and  _20
REMARK   14  A    between atoms: _22  and  _24
REMARK   15  A    between atoms: _24  and  _25
REMARK   16  A    between atoms: _24  and  _27
REMARK   17  A    between atoms: _27  and  _28
REMARK   18  A    between atoms: _31  and  _33
REMARK   19  A    between atoms: _33  and  _34
REMARK   20  A    between atoms: _33  and  _36
REMARK   21  A    between atoms: _36  and  _37
REMARK   22  A    between atoms: _40  and  _42
REMARK   23  A    between atoms: _42  and  _43
REMARK   24  A    between atoms: _42  and  _45
REMARK   25  A    between atoms: _45  and  _46
REMARK   26  A    between atoms: _53  and  _54
REMARK   27  A    between atoms: _59  and  _61
REMARK   28  A    between atoms: _61  and  _62
REMARK   29  A    between atoms: _65  and  _67
REMARK   30  A    between atoms: _67  and  _68
REMARK   31  A    between atoms: _67  and  _70
REMARK   32  A    between atoms: _70  and  _71
REMARK   33  A    between atoms: _71  and  _72
REMARK   34  A    between atoms: _74  and  _76
REMARK   35  A    between atoms: _76  and  _77
REMARK   36  A    between atoms: _76  and  _79
REMARK   37  A    between atoms: _79  and  _80
REMARK   38  A    between atoms: _80  and  _81
REMARK   39  A    between atoms: _81  and  _82
REMARK   40  A    between atoms: _82  and  _83
REMARK   41  A    between atoms: _87  and  _89
REMARK   42  A    between atoms: _89  and  _90
REMARK   43  A    between atoms: _89  and  _92
REMARK   44  A    between atoms: _92  and  _93
REMARK   45  A    between atoms: _99  and  _101
REMARK   46  A    between atoms: _101  and  _102
REMARK   47  A    between atoms: _101  and  _104
REMARK   48  A    between atoms: _104  and  _105
REMARK   49  A    between atoms: _108  and  _110
REMARK   50  A    between atoms: _110  and  _111
REMARK   51  A    between atoms: _110  and  _113
REMARK   52  A    between atoms: _113  and  _114
REMARK   53  A    between atoms: _120  and  _122
REMARK   54  A    between atoms: _122  and  _123
REMARK   55  A    between atoms: _122  and  _125
REMARK   56  A    between atoms: _125  and  _126
REMARK   57  A    between atoms: _129  and  _131
REMARK   58  A    between atoms: _131  and  _132
REMARK   59  A    between atoms: _131  and  _134
REMARK   60  A    between atoms: _134  and  _135
REMARK   61  A    between atoms: _141  and  _143
REMARK   62  A    between atoms: _143  and  _144
REMARK   63  A    between atoms: _143  and  _146
REMARK   64  A    between atoms: _146  and  _147
REMARK   65  A    between atoms: _147  and  _148
REMARK   66  A    between atoms: _151  and  _153
REMARK   67  A    between atoms: _153  and  _154
REMARK   68  A    between atoms: _153  and  _156
REMARK   69  A    between atoms: _156  and  _157
REMARK   70  A    between atoms: _160  and  _162
REMARK   71  A    between atoms: _162  and  _163
REMARK   72  A    between atoms: _162  and  _165
REMARK   73  A    between atoms: _165  and  _166
REMARK   74  A    between atoms: _170  and  ZN_370
REMARK   75  A    between atoms: _171  and  _173
REMARK   76  A    between atoms: _173  and  _174
REMARK   77  A    between atoms: _173  and  _176
REMARK   78  A    between atoms: _179  and  _181
REMARK   79  A    between atoms: _181  and  _182
REMARK   80  A    between atoms: _181  and  _184
REMARK   81  A    between atoms: _184  and  _185
REMARK   82  A    between atoms: _185  and  _186
REMARK   83  A    between atoms: _186  and  _187
REMARK   84  A    between atoms: _187  and  _188
REMARK   85  A    between atoms: _192  and  _194
REMARK   86  A    between atoms: _194  and  _195
REMARK   87  A    between atoms: _194  and  _197
REMARK   88  A    between atoms: _197  and  _198
REMARK   89  A    between atoms: _198  and  _199
REMARK   90  A    between atoms: _199  and  _200
REMARK   91  A    between atoms: _200  and  _201
REMARK   92  A    between atoms: _206  and  _207
REMARK   93  A    between atoms: _212  and  _214
REMARK   94  A    between atoms: _214  and  _215
REMARK   95  A    between atoms: _214  and  _217
REMARK   96  A    between atoms: _217  and  _218
REMARK   97  A    between atoms: _221  and  _223
REMARK   98  A    between atoms: _223  and  _224
REMARK   99  A    between atoms: _223  and  _226
REMARK  100  A    between atoms: _226  and  _227
REMARK  101  A    between atoms: _230  and  _232
REMARK  102  A    between atoms: _232  and  _233
REMARK  103  A    between atoms: _235  and  _237
REMARK  104  A    between atoms: _237  and  _238
REMARK  105  A    between atoms: _237  and  _240
REMARK  106  A    between atoms: _240  and  _241
REMARK  107  A    between atoms: _241  and  _242
REMARK  108  A    between atoms: _242  and  _243
REMARK  109  A    between atoms: _243  and  _244
REMARK  110  A    between atoms: _248  and  _250
REMARK  111  A    between atoms: _250  and  _251
REMARK  112  A    between atoms: _250  and  _253
REMARK  113  A    between atoms: _253  and  _254
REMARK  114  A    between atoms: _254  and  _255
REMARK  115  A    between atoms: _257  and  _259
REMARK  116  A    between atoms: _259  and  _260
REMARK  117  A    between atoms: _259  and  _262
REMARK  118  A    between atoms: _262  and  _263
REMARK  119  A    between atoms: _263  and  _264
REMARK  120  A    between atoms: _264  and  _265
REMARK  121  A    between atoms: _265  and  _266
REMARK  122  A    between atoms: _270  and  _272
REMARK  123  A    between atoms: _272  and  _273
REMARK  124  A    between atoms: _275  and  _277
REMARK  125  A    between atoms: _277  and  _278
REMARK  126  A    between atoms: _277  and  _280
REMARK  127  A    between atoms: _280  and  _281
REMARK  128  A    between atoms: _284  and  _286
REMARK  129  A    between atoms: _286  and  _287
REMARK  130  A    between atoms: _290  and  _292
REMARK  131  A    between atoms: _292  and  _293
REMARK  132  A    between atoms: _292  and  _295
REMARK  133  A    between atoms: _295  and  _296
REMARK  134  A    between atoms: _302  and  _304
REMARK  135  A    between atoms: _304  and  _305
REMARK  136  A    between atoms: _304  and  _307
REMARK  137  A    between atoms: _307  and  _308
REMARK  138  A    between atoms: _318  and  _320
REMARK  139  A    between atoms: _320  and  _321
REMARK  140  A    between atoms: _320  and  _323
REMARK  141  A    between atoms: _323  and  _324
REMARK  142  A    between atoms: _324  and  _325
REMARK  143  A    between atoms: _325  and  _327
REMARK  144  A    between atoms: _327  and  ZN_370
REMARK  145  A    between atoms: _328  and  _330
REMARK  146  A    between atoms: _330  and  _331
REMARK  147  A    between atoms: _330  and  _333
REMARK  148  A    between atoms: _333  and  _334
REMARK  149  A    between atoms: _337  and  _339
REMARK  150  A    between atoms: _339  and  _340
REMARK  151  A    between atoms: _339  and  _342
REMARK  152  A    between atoms: _342  and  _343
REMARK  153  A    between atoms: _346  and  _348
REMARK  154  A    between atoms: _348  and  _349
REMARK  155  A    between atoms: _352  and  _354
REMARK  156  A    between atoms: _354  and  _355
REMARK  157  A    between atoms: _354  and  _357
REMARK  158  A    between atoms: _357  and  _358
REMARK  159  A    between atoms: _361  and  _363
REMARK  160  A    between atoms: _363  and  _364
REMARK  161  A    between atoms: _363  and  _366
REMARK  162  A    between atoms: _366  and  _367
REMARK                            x       y       z     vdW  Elec       q    Type
REMARK                         _______ _______ _______ _____ _____    ______ ____
ROOT
ATOM      1  C   ILE A   1      12.401  11.520  59.344  0.00  0.00    +0.238 C 
ATOM      2  N   ILE A   2      12.927  10.294  59.384  0.00  0.00    -0.298 N 
ATOM      3  H   ILE A   2      12.733   9.690  60.208  0.00  0.00    +0.150 HD
ATOM      4  O   ILE A   1      12.692  12.354  58.485  0.00  0.00    -0.274 OA
ENDROOT
BRANCH   1   5
ATOM      5  CA  ILE A   1      11.362  11.867  60.410  0.00  0.00    +0.145 C 
BRANCH   5   6
ATOM      6  N   ILE A   1      10.356  10.822  60.547  0.00  0.00    -0.238 NA
ATOM      7  H   ILE A   1      10.274  10.323  61.456  0.00  0.00    +0.142 HD
ENDBRANCH   5   6
BRANCH   5   8
ATOM      8  CB  ILE A   1      11.977  12.242  61.790  0.00  0.00    +0.025 C 
ATOM      9  CG2 ILE A   1      13.273  12.971  61.632  0.00  0.00    +0.002 C 
BRANCH   8  10
ATOM     10  CG1 ILE A   1      10.994  13.129  62.569  0.00  0.00    +0.002 C 
ATOM     11  CD1 ILE A   1      11.216  13.145  64.104  0.00  0.00    +0.000 C 
ENDBRANCH   8  10
ENDBRANCH   5   8
ENDBRANCH   1   5
BRANCH   2  12
ATOM     12  CA  ILE A   2      13.770   9.772  58.303  0.00  0.00    +0.137 C 
BRANCH  12  13
ATOM     13  CB  ILE A   2      14.088   8.287  58.501  0.00  0.00    +0.026 C 
ATOM     14  CG2 ILE A   2      15.140   7.820  57.484  0.00  0.00    +0.002 C 
BRANCH  13  15
ATOM     15  CG1 ILE A   2      14.544   8.018  59.929  0.00  0.00    +0.002 C 
ATOM     16  CD1 ILE A   2      14.735   6.549  60.205  0.00  0.00    +0.000 C 
ENDBRANCH  13  15
ENDBRANCH  12  13
BRANCH  12  17
ATOM     17  C   ILE A   2      13.075   9.892  56.948  0.00  0.00    +0.227 C 
ATOM     18  O   ILE A   2      12.404   8.958  56.493  0.00  0.00    -0.286 OA
ENDBRANCH  12  17
ENDBRANCH   2  12
TORSDOF 8
REMARK  Name = ../refined-set-2016/4kyk/4kyk_pocket.pdb
REMARK  162 active torsions:
REMARK  status: ('A' for Active; 'I' for Inactive)
REMARK    1  A    between atoms: _1  and  _3
REMARK    2  A    between atoms: _3  and  _4
REMARK    3  A    between atoms: _3  and  _6
REMARK    4  A    between atoms: _6  and  _7
REMARK    5  A    between atoms: _7  and  _8
REMARK    6  A    between atoms: _8  and  _9
REMARK    7  A    between atoms: _8  and  _10
REMARK    8  A    between atoms: _9  and  ZN_370
REMARK    9  A    between atoms: _13  and  _15
REMARK   10  A    between atoms: _15  and  _16
REMARK   11  A    between atoms: _15  and  _18
REMARK   12  A    between atoms: _18  and  _19
REMARK   13  A    between atoms: _19  and  _20
REMARK   14  A    between atoms: _22  and  _24
REMARK   15  A    between atoms: _24  and  _25
REMARK   16  A    between atoms: _24  and  _27
REMARK   17  A    between atoms: _27  and  _28
REMARK   18  A    between atoms: _31  and  _33
REMARK   19  A    between atoms: _33  and  _34
REMARK   20  A    between atoms: _33  and  _36
REMARK   21  A    between atoms: _36  and  _37
REMARK   22  A    between atoms: _40  and  _42
REMARK   23  A    between atoms: _42  and  _43
REMARK   24  A    between atoms: _42  and  _45
REMARK   25  A    between atoms: _45  and  _46
REMARK   26  A    between atoms: _53  and  _54
REMARK   27  A    between atoms: _59  and  _61
REMARK   28  A    between atoms: _61  and  _62
REMARK   29  A    between atoms: _65  and  _67
REMARK   30  A    between atoms: _67  and  _68
REMARK   31  A    between atoms: _67  and  _70
REMARK   32  A    between atoms: _70  and  _71
REMARK   33  A    between atoms: _71  and  _72
REMARK   34  A    between atoms: _74  and  _76
REMARK   35  A    between atoms: _76  and  _77
REMARK   36  A    between atoms: _76  and  _79
REMARK   37  A    between atoms: _79  and  _80
REMARK   38  A    between atoms: _80  and  _81
REMARK   39  A    between atoms: _81  and  _82
REMARK   40  A    between atoms: _82  and  _83
REMARK   41  A    between atoms: _87  and  _89
REMARK   42  A    between atoms: _89  and  _90
REMARK   43  A    between atoms: _89  and  _92
REMARK   44  A    between atoms: _92  and  _93
REMARK   45  A    between atoms: _99  and  _101
REMARK   46  A    between atoms: _101  and  _102
REMARK   47  A    between atoms: _101  and  _104
REMARK   48  A    between atoms: _104  and  _105
REMARK   49  A    between atoms: _108  and  _110
REMARK   50  A    between atoms: _110  and  _111
REMARK   51  A    between atoms: _110  and  _113
REMARK   52  A    between atoms: _113  and  _114
REMARK   53  A    between atoms: _120  and  _122
REMARK   54  A    between atoms: _122  and  _123
REMARK   55  A    between atoms: _122  and  _125
REMARK   56  A    between atoms: _125  and  _126
REMARK   57  A    between atoms: _129  and  _131
REMARK   58  A    between atoms: _131  and  _132
REMARK   59  A    between atoms: _131  and  _134
REMARK   60  A    between atoms: _134  and  _135
REMARK   61  A    between atoms: _141  and  _143
REMARK   62  A    between atoms: _143  and  _144
REMARK   63  A    between atoms: _143  and  _146
REMARK   64  A    between atoms: _146  and  _147
REMARK   65  A    between atoms: _147  and  _148
REMARK   66  A    between atoms: _151  and  _153
REMARK   67  A    between atoms: _153  and  _154
REMARK   68  A    between atoms: _153  and  _156
REMARK   69  A    between atoms: _156  and  _157
REMARK   70  A    between atoms: _160  and  _162
REMARK   71  A    between atoms: _162  and  _163
REMARK   72  A    between atoms: _162  and  _165
REMARK   73  A    between atoms: _165  and  _166
REMARK   74  A    between atoms: _170  and  ZN_370
REMARK   75  A    between atoms: _171  and  _173
REMARK   76  A    between atoms: _173  and  _174
REMARK   77  A    between atoms: _173  and  _176
REMARK   78  A    between atoms: _179  and  _181
REMARK   79  A    between atoms: _181  and  _182
REMARK   80  A    between atoms: _181  and  _184
REMARK   81  A    between atoms: _184  and  _185
REMARK   82  A    between atoms: _185  and  _186
REMARK   83  A    between atoms: _186  and  _187
REMARK   84  A    between atoms: _187  and  _188
REMARK   85  A    between atoms: _192  and  _194
REMARK   86  A    between atoms: _194  and  _195
REMARK   87  A    between atoms: _194  and  _197
REMARK   88  A    between atoms: _197  and  _198
REMARK   89  A    between atoms: _198  and  _199
REMARK   90  A    between atoms: _199  and  _200
REMARK   91  A    between atoms: _200  and  _201
REMARK   92  A    between atoms: _206  and  _207
REMARK   93  A    between atoms: _212  and  _214
REMARK   94  A    between atoms: _214  and  _215
REMARK   95  A    between atoms: _214  and  _217
REMARK   96  A    between atoms: _217  and  _218
REMARK   97  A    between atoms: _221  and  _223
REMARK   98  A    between atoms: _223  and  _224
REMARK   99  A    between atoms: _223  and  _226
REMARK  100  A    between atoms: _226  and  _227
REMARK  101  A    between atoms: _230  and  _232
REMARK  102  A    between atoms: _232  and  _233
REMARK  103  A    between atoms: _235  and  _237
REMARK  104  A    between atoms: _237  and  _238
REMARK  105  A    between atoms: _237  and  _240
REMARK  106  A    between atoms: _240  and  _241
REMARK  107  A    between atoms: _241  and  _242
REMARK  108  A    between atoms: _242  and  _243
REMARK  109  A    between atoms: _243  and  _244
REMARK  110  A    between atoms: _248  and  _250
REMARK  111  A    between atoms: _250  and  _251
REMARK  112  A    between atoms: _250  and  _253
REMARK  113  A    between atoms: _253  and  _254
REMARK  114  A    between atoms: _254  and  _255
REMARK  115  A    between atoms: _257  and  _259
REMARK  116  A    between atoms: _259  and  _260
REMARK  117  A    between atoms: _259  and  _262
REMARK  118  A    between atoms: _262  and  _263
REMARK  119  A    between atoms: _263  and  _264
REMARK  120  A    between atoms: _264  and  _265
REMARK  121  A    between atoms: _265  and  _266
REMARK  122  A    between atoms: _270  and  _272
REMARK  123  A    between atoms: _272  and  _273
REMARK  124  A    between atoms: _275  and  _277
REMARK  125  A    between atoms: _277  and  _278
REMARK  126  A    between atoms: _277  and  _280
REMARK  127  A    between atoms: _280  and  _281
REMARK  128  A    between atoms: _284  and  _286
REMARK  129  A    between atoms: _286  and  _287
REMARK  130  A    between atoms: _290  and  _292
REMARK  131  A    between atoms: _292  and  _293
REMARK  132  A    between atoms: _292  and  _295
REMARK  133  A    between atoms: _295  and  _296
REMARK  134  A    between atoms: _302  and  _304
REMARK  135  A    between atoms: _304  and  _305
REMARK  136  A    between atoms: _304  and  _307
REMARK  137  A    between atoms: _307  and  _308
REMARK  138  A    between atoms: _318  and  _320
REMARK  139  A    between atoms: _320  and  _321
REMARK  140  A    between atoms: _320  and  _323
REMARK  141  A    between atoms: _323  and  _324
REMARK  142  A    between atoms: _324  and  _325
REMARK  143  A    between atoms: _325  and  _327
REMARK  144  A    between atoms: _327  and  ZN_370
REMARK  145  A    between atoms: _328  and  _330
REMARK  146  A    between atoms: _330  and  _331
REMARK  147  A    between atoms: _330  and  _333
REMARK  148  A    between atoms: _333  and  _334
REMARK  149  A    between atoms: _337  and  _339
REMARK  150  A    between atoms: _339  and  _340
REMARK  151  A    between atoms: _339  and  _342
REMARK  152  A    between atoms: _342  and  _343
REMARK  153  A    between atoms: _346  and  _348
REMARK  154  A    between atoms: _348  and  _349
REMARK  155  A    between atoms: _352  and  _354
REMARK  156  A    between atoms: _354  and  _355
REMARK  157  A    between atoms: _354  and  _357
REMARK  158  A    between atoms: _357  and  _358
REMARK  159  A    between atoms: _361  and  _363
REMARK  160  A    between atoms: _363  and  _364
REMARK  161  A    between atoms: _363  and  _366
REMARK  162  A    between atoms: _366  and  _367
REMARK                            x       y       z     vdW  Elec       q    Type
REMARK                         _______ _______ _______ _____ _____    ______ ____
ROOT
ATOM      1  O   HOH     1      19.390   8.559  67.552  0.00  0.00    +0.000 OA
ENDROOT
TORSDOF 0
REMARK  Name = ../refined-set-2016/4kyk/4kyk_pocket.pdb
REMARK  162 active torsions:
REMARK  status: ('A' for Active; 'I' for Inactive)
REMARK    1  A    between atoms: _1  and  _3
REMARK    2  A    between atoms: _3  and  _4
REMARK    3  A    between atoms: _3  and  _6
REMARK    4  A    between atoms: _6  and  _7
REMARK    5  A    between atoms: _7  and  _8
REMARK    6  A    between atoms: _8  and  _9
REMARK    7  A    between atoms: _8  and  _10
REMARK    8  A    between atoms: _9  and  ZN_370
REMARK    9  A    between atoms: _13  and  _15
REMARK   10  A    between atoms: _15  and  _16
REMARK   11  A    between atoms: _15  and  _18
REMARK   12  A    between atoms: _18  and  _19
REMARK   13  A    between atoms: _19  and  _20
REMARK   14  A    between atoms: _22  and  _24
REMARK   15  A    between atoms: _24  and  _25
REMARK   16  A    between atoms: _24  and  _27
REMARK   17  A    between atoms: _27  and  _28
REMARK   18  A    between atoms: _31  and  _33
REMARK   19  A    between atoms: _33  and  _34
REMARK   20  A    between atoms: _33  and  _36
REMARK   21  A    between atoms: _36  and  _37
REMARK   22  A    between atoms: _40  and  _42
REMARK   23  A    between atoms: _42  and  _43
REMARK   24  A    between atoms: _42  and  _45
REMARK   25  A    between atoms: _45  and  _46
REMARK   26  A    between atoms: _53  and  _54
REMARK   27  A    between atoms: _59  and  _61
REMARK   28  A    between atoms: _61  and  _62
REMARK   29  A    between atoms: _65  and  _67
REMARK   30  A    between atoms: _67  and  _68
REMARK   31  A    between atoms: _67  and  _70
REMARK   32  A    between atoms: _70  and  _71
REMARK   33  A    between atoms: _71  and  _72
REMARK   34  A    between atoms: _74  and  _76
REMARK   35  A    between atoms: _76  and  _77
REMARK   36  A    between atoms: _76  and  _79
REMARK   37  A    between atoms: _79  and  _80
REMARK   38  A    between atoms: _80  and  _81
REMARK   39  A    between atoms: _81  and  _82
REMARK   40  A    between atoms: _82  and  _83
REMARK   41  A    between atoms: _87  and  _89
REMARK   42  A    between atoms: _89  and  _90
REMARK   43  A    between atoms: _89  and  _92
REMARK   44  A    between atoms: _92  and  _93
REMARK   45  A    between atoms: _99  and  _101
REMARK   46  A    between atoms: _101  and  _102
REMARK   47  A    between atoms: _101  and  _104
REMARK   48  A    between atoms: _104  and  _105
REMARK   49  A    between atoms: _108  and  _110
REMARK   50  A    between atoms: _110  and  _111
REMARK   51  A    between atoms: _110  and  _113
REMARK   52  A    between atoms: _113  and  _114
REMARK   53  A    between atoms: _120  and  _122
REMARK   54  A    between atoms: _122  and  _123
REMARK   55  A    between atoms: _122  and  _125
REMARK   56  A    between atoms: _125  and  _126
REMARK   57  A    between atoms: _129  and  _131
REMARK   58  A    between atoms: _131  and  _132
REMARK   59  A    between atoms: _131  and  _134
REMARK   60  A    between atoms: _134  and  _135
REMARK   61  A    between atoms: _141  and  _143
REMARK   62  A    between atoms: _143  and  _144
REMARK   63  A    between atoms: _143  and  _146
REMARK   64  A    between atoms: _146  and  _147
REMARK   65  A    between atoms: _147  and  _148
REMARK   66  A    between atoms: _151  and  _153
REMARK   67  A    between atoms: _153  and  _154
REMARK   68  A    between atoms: _153  and  _156
REMARK   69  A    between atoms: _156  and  _157
REMARK   70  A    between atoms: _160  and  _162
REMARK   71  A    between atoms: _162  and  _163
REMARK   72  A    between atoms: _162  and  _165
REMARK   73  A    between atoms: _165  and  _166
REMARK   74  A    between atoms: _170  and  ZN_370
REMARK   75  A    between atoms: _171  and  _173
REMARK   76  A    between atoms: _173  and  _174
REMARK   77  A    between atoms: _173  and  _176
REMARK   78  A    between atoms: _179  and  _181
REMARK   79  A    between atoms: _181  and  _182
REMARK   80  A    between atoms: _181  and  _184
REMARK   81  A    between atoms: _184  and  _185
REMARK   82  A    between atoms: _185  and  _186
REMARK   83  A    between atoms: _186  and  _187
REMARK   84  A    between atoms: _187  and  _188
REMARK   85  A    between atoms: _192  and  _194
REMARK   86  A    between atoms: _194  and  _195
REMARK   87  A    between atoms: _194  and  _197
REMARK   88  A    between atoms: _197  and  _198
REMARK   89  A    between atoms: _198  and  _199
REMARK   90  A    between atoms: _199  and  _200
REMARK   91  A    between atoms: _200  and  _201
REMARK   92  A    between atoms: _206  and  _207
REMARK   93  A    between atoms: _212  and  _214
REMARK   94  A    between atoms: _214  and  _215
REMARK   95  A    between atoms: _214  and  _217
REMARK   96  A    between atoms: _217  and  _218
REMARK   97  A    between atoms: _221  and  _223
REMARK   98  A    between atoms: _223  and  _224
REMARK   99  A    between atoms: _223  and  _226
REMARK  100  A    between atoms: _226  and  _227
REMARK  101  A    between atoms: _230  and  _232
REMARK  102  A    between atoms: _232  and  _233
REMARK  103  A    between atoms: _235  and  _237
REMARK  104  A    between atoms: _237  and  _238
REMARK  105  A    between atoms: _237  and  _240
REMARK  106  A    between atoms: _240  and  _241
REMARK  107  A    between atoms: _241  and  _242
REMARK  108  A    between atoms: _242  and  _243
REMARK  109  A    between atoms: _243  and  _244
REMARK  110  A    between atoms: _248  and  _250
REMARK  111  A    between atoms: _250  and  _251
REMARK  112  A    between atoms: _250  and  _253
REMARK  113  A    between atoms: _253  and  _254
REMARK  114  A    between atoms: _254  and  _255
REMARK  115  A    between atoms: _257  and  _259
REMARK  116  A    between atoms: _259  and  _260
REMARK  117  A    between atoms: _259  and  _262
REMARK  118  A    between atoms: _262  and  _263
REMARK  119  A    between atoms: _263  and  _264
REMARK  120  A    between atoms: _264  and  _265
REMARK  121  A    between atoms: _265  and  _266
REMARK  122  A    between atoms: _270  and  _272
REMARK  123  A    between atoms: _272  and  _273
REMARK  124  A    between atoms: _275  and  _277
REMARK  125  A    between atoms: _277  and  _278
REMARK  126  A    between atoms: _277  and  _280
REMARK  127  A    between atoms: _280  and  _281
REMARK  128  A    between atoms: _284  and  _286
REMARK  129  A    between atoms: _286  and  _287
REMARK  130  A    between atoms: _290  and  _292
REMARK  131  A    between atoms: _292  and  _293
REMARK  132  A    between atoms: _292  and  _295
REMARK  133  A    between atoms: _295  and  _296
REMARK  134  A    between atoms: _302  and  _304
REMARK  135  A    between atoms: _304  and  _305
REMARK  136  A    between atoms: _304  and  _307
REMARK  137  A    between atoms: _307  and  _308
REMARK  138  A    between atoms: _318  and  _320
REMARK  139  A    between atoms: _320  and  _321
REMARK  140  A    between atoms: _320  and  _323
REMARK  141  A    between atoms: _323  and  _324
REMARK  142  A    between atoms: _324  and  _325
REMARK  143  A    between atoms: _325  and  _327
REMARK  144  A    between atoms: _327  and  ZN_370
REMARK  145  A    between atoms: _328  and  _330
REMARK  146  A    between atoms: _330  and  _331
REMARK  147  A    between atoms: _330  and  _333
REMARK  148  A    between atoms: _333  and  _334
REMARK  149  A    between atoms: _337  and  _339
REMARK  150  A    between atoms: _339  and  _340
REMARK  151  A    between atoms: _339  and  _342
REMARK  152  A    between atoms: _342  and  _343
REMARK  153  A    between atoms: _346  and  _348
REMARK  154  A    between atoms: _348  and  _349
REMARK  155  A    between atoms: _352  and  _354
REMARK  156  A    between atoms: _354  and  _355
REMARK  157  A    between atoms: _354  and  _357
REMARK  158  A    between atoms: _357  and  _358
REMARK  159  A    between atoms: _361  and  _363
REMARK  160  A    between atoms: _363  and  _364
REMARK  161  A    between atoms: _363  and  _366
REMARK  162  A    between atoms: _366  and  _367
REMARK                            x       y       z     vdW  Elec       q    Type
REMARK                         _______ _______ _______ _____ _____    ______ ____
ROOT
ATOM      1  O   HOH     1      22.693  10.701  66.149  0.00  0.00    +0.000 OA
ENDROOT
TORSDOF 0
REMARK  Name = ../refined-set-2016/4kyk/4kyk_pocket.pdb
REMARK  162 active torsions:
REMARK  status: ('A' for Active; 'I' for Inactive)
REMARK    1  A    between atoms: _1  and  _3
REMARK    2  A    between atoms: _3  and  _4
REMARK    3  A    between atoms: _3  and  _6
REMARK    4  A    between atoms: _6  and  _7
REMARK    5  A    between atoms: _7  and  _8
REMARK    6  A    between atoms: _8  and  _9
REMARK    7  A    between atoms: _8  and  _10
REMARK    8  A    between atoms: _9  and  ZN_370
REMARK    9  A    between atoms: _13  and  _15
REMARK   10  A    between atoms: _15  and  _16
REMARK   11  A    between atoms: _15  and  _18
REMARK   12  A    between atoms: _18  and  _19
REMARK   13  A    between atoms: _19  and  _20
REMARK   14  A    between atoms: _22  and  _24
REMARK   15  A    between atoms: _24  and  _25
REMARK   16  A    between atoms: _24  and  _27
REMARK   17  A    between atoms: _27  and  _28
REMARK   18  A    between atoms: _31  and  _33
REMARK   19  A    between atoms: _33  and  _34
REMARK   20  A    between atoms: _33  and  _36
REMARK   21  A    between atoms: _36  and  _37
REMARK   22  A    between atoms: _40  and  _42
REMARK   23  A    between atoms: _42  and  _43
REMARK   24  A    between atoms: _42  and  _45
REMARK   25  A    between atoms: _45  and  _46
REMARK   26  A    between atoms: _53  and  _54
REMARK   27  A    between atoms: _59  and  _61
REMARK   28  A    between atoms: _61  and  _62
REMARK   29  A    between atoms: _65  and  _67
REMARK   30  A    between atoms: _67  and  _68
REMARK   31  A    between atoms: _67  and  _70
REMARK   32  A    between atoms: _70  and  _71
REMARK   33  A    between atoms: _71  and  _72
REMARK   34  A    between atoms: _74  and  _76
REMARK   35  A    between atoms: _76  and  _77
REMARK   36  A    between atoms: _76  and  _79
REMARK   37  A    between atoms: _79  and  _80
REMARK   38  A    between atoms: _80  and  _81
REMARK   39  A    between atoms: _81  and  _82
REMARK   40  A    between atoms: _82  and  _83
REMARK   41  A    between atoms: _87  and  _89
REMARK   42  A    between atoms: _89  and  _90
REMARK   43  A    between atoms: _89  and  _92
REMARK   44  A    between atoms: _92  and  _93
REMARK   45  A    between atoms: _99  and  _101
REMARK   46  A    between atoms: _101  and  _102
REMARK   47  A    between atoms: _101  and  _104
REMARK   48  A    between atoms: _104  and  _105
REMARK   49  A    between atoms: _108  and  _110
REMARK   50  A    between atoms: _110  and  _111
REMARK   51  A    between atoms: _110  and  _113
REMARK   52  A    between atoms: _113  and  _114
REMARK   53  A    between atoms: _120  and  _122
REMARK   54  A    between atoms: _122  and  _123
REMARK   55  A    between atoms: _122  and  _125
REMARK   56  A    between atoms: _125  and  _126
REMARK   57  A    between atoms: _129  and  _131
REMARK   58  A    between atoms: _131  and  _132
REMARK   59  A    between atoms: _131  and  _134
REMARK   60  A    between atoms: _134  and  _135
REMARK   61  A    between atoms: _141  and  _143
REMARK   62  A    between atoms: _143  and  _144
REMARK   63  A    between atoms: _143  and  _146
REMARK   64  A    between atoms: _146  and  _147
REMARK   65  A    between atoms: _147  and  _148
REMARK   66  A    between atoms: _151  and  _153
REMARK   67  A    between atoms: _153  and  _154
REMARK   68  A    between atoms: _153  and  _156
REMARK   69  A    between atoms: _156  and  _157
REMARK   70  A    between atoms: _160  and  _162
REMARK   71  A    between atoms: _162  and  _163
REMARK   72  A    between atoms: _162  and  _165
REMARK   73  A    between atoms: _165  and  _166
REMARK   74  A    between atoms: _170  and  ZN_370
REMARK   75  A    between atoms: _171  and  _173
REMARK   76  A    between atoms: _173  and  _174
REMARK   77  A    between atoms: _173  and  _176
REMARK   78  A    between atoms: _179  and  _181
REMARK   79  A    between atoms: _181  and  _182
REMARK   80  A    between atoms: _181  and  _184
REMARK   81  A    between atoms: _184  and  _185
REMARK   82  A    between atoms: _185  and  _186
REMARK   83  A    between atoms: _186  and  _187
REMARK   84  A    between atoms: _187  and  _188
REMARK   85  A    between atoms: _192  and  _194
REMARK   86  A    between atoms: _194  and  _195
REMARK   87  A    between atoms: _194  and  _197
REMARK   88  A    between atoms: _197  and  _198
REMARK   89  A    between atoms: _198  and  _199
REMARK   90  A    between atoms: _199  and  _200
REMARK   91  A    between atoms: _200  and  _201
REMARK   92  A    between atoms: _206  and  _207
REMARK   93  A    between atoms: _212  and  _214
REMARK   94  A    between atoms: _214  and  _215
REMARK   95  A    between atoms: _214  and  _217
REMARK   96  A    between atoms: _217  and  _218
REMARK   97  A    between atoms: _221  and  _223
REMARK   98  A    between atoms: _223  and  _224
REMARK   99  A    between atoms: _223  and  _226
REMARK  100  A    between atoms: _226  and  _227
REMARK  101  A    between atoms: _230  and  _232
REMARK  102  A    between atoms: _232  and  _233
REMARK  103  A    between atoms: _235  and  _237
REMARK  104  A    between atoms: _237  and  _238
REMARK  105  A    between atoms: _237  and  _240
REMARK  106  A    between atoms: _240  and  _241
REMARK  107  A    between atoms: _241  and  _242
REMARK  108  A    between atoms: _242  and  _243
REMARK  109  A    between atoms: _243  and  _244
REMARK  110  A    between atoms: _248  and  _250
REMARK  111  A    between atoms: _250  and  _251
REMARK  112  A    between atoms: _250  and  _253
REMARK  113  A    between atoms: _253  and  _254
REMARK  114  A    between atoms: _254  and  _255
REMARK  115  A    between atoms: _257  and  _259
REMARK  116  A    between atoms: _259  and  _260
REMARK  117  A    between atoms: _259  and  _262
REMARK  118  A    between atoms: _262  and  _263
REMARK  119  A    between atoms: _263  and  _264
REMARK  120  A    between atoms: _264  and  _265
REMARK  121  A    between atoms: _265  and  _266
REMARK  122  A    between atoms: _270  and  _272
REMARK  123  A    between atoms: _272  and  _273
REMARK  124  A    between atoms: _275  and  _277
REMARK  125  A    between atoms: _277  and  _278
REMARK  126  A    between atoms: _277  and  _280
REMARK  127  A    between atoms: _280  and  _281
REMARK  128  A    between atoms: _284  and  _286
REMARK  129  A    between atoms: _286  and  _287
REMARK  130  A    between atoms: _290  and  _292
REMARK  131  A    between atoms: _292  and  _293
REMARK  132  A    between atoms: _292  and  _295
REMARK  133  A    between atoms: _295  and  _296
REMARK  134  A    between atoms: _302  and  _304
REMARK  135  A    between atoms: _304  and  _305
REMARK  136  A    between atoms: _304  and  _307
REMARK  137  A    between atoms: _307  and  _308
REMARK  138  A    between atoms: _318  and  _320
REMARK  139  A    between atoms: _320  and  _321
REMARK  140  A    between atoms: _320  and  _323
REMARK  141  A    between atoms: _323  and  _324
REMARK  142  A    between atoms: _324  and  _325
REMARK  143  A    between atoms: _325  and  _327
REMARK  144  A    between atoms: _327  and  ZN_370
REMARK  145  A    between atoms: _328  and  _330
REMARK  146  A    between atoms: _330  and  _331
REMARK  147  A    between atoms: _330  and  _333
REMARK  148  A    between atoms: _333  and  _334
REMARK  149  A    between atoms: _337  and  _339
REMARK  150  A    between atoms: _339  and  _340
REMARK  151  A    between atoms: _339  and  _342
REMARK  152  A    between atoms: _342  and  _343
REMARK  153  A    between atoms: _346  and  _348
REMARK  154  A    between atoms: _348  and  _349
REMARK  155  A    between atoms: _352  and  _354
REMARK  156  A    between atoms: _354  and  _355
REMARK  157  A    between atoms: _354  and  _357
REMARK  158  A    between atoms: _357  and  _358
REMARK  159  A    between atoms: _361  and  _363
REMARK  160  A    between atoms: _363  and  _364
REMARK  161  A    between atoms: _363  and  _366
REMARK  162  A    between atoms: _366  and  _367
REMARK                            x       y       z     vdW  Elec       q    Type
REMARK                         _______ _______ _______ _____ _____    ______ ____
ROOT
ATOM      1  O   HOH     1      19.917   9.680  53.945  0.00  0.00    +0.000 OA
ENDROOT
TORSDOF 0
REMARK  Name = ../refined-set-2016/4kyk/4kyk_pocket.pdb
REMARK  162 active torsions:
REMARK  status: ('A' for Active; 'I' for Inactive)
REMARK    1  A    between atoms: _1  and  _3
REMARK    2  A    between atoms: _3  and  _4
REMARK    3  A    between atoms: _3  and  _6
REMARK    4  A    between atoms: _6  and  _7
REMARK    5  A    between atoms: _7  and  _8
REMARK    6  A    between atoms: _8  and  _9
REMARK    7  A    between atoms: _8  and  _10
REMARK    8  A    between atoms: _9  and  ZN_370
REMARK    9  A    between atoms: _13  and  _15
REMARK   10  A    between atoms: _15  and  _16
REMARK   11  A    between atoms: _15  and  _18
REMARK   12  A    between atoms: _18  and  _19
REMARK   13  A    between atoms: _19  and  _20
REMARK   14  A    between atoms: _22  and  _24
REMARK   15  A    between atoms: _24  and  _25
REMARK   16  A    between atoms: _24  and  _27
REMARK   17  A    between atoms: _27  and  _28
REMARK   18  A    between atoms: _31  and  _33
REMARK   19  A    between atoms: _33  and  _34
REMARK   20  A    between atoms: _33  and  _36
REMARK   21  A    between atoms: _36  and  _37
REMARK   22  A    between atoms: _40  and  _42
REMARK   23  A    between atoms: _42  and  _43
REMARK   24  A    between atoms: _42  and  _45
REMARK   25  A    between atoms: _45  and  _46
REMARK   26  A    between atoms: _53  and  _54
REMARK   27  A    between atoms: _59  and  _61
REMARK   28  A    between atoms: _61  and  _62
REMARK   29  A    between atoms: _65  and  _67
REMARK   30  A    between atoms: _67  and  _68
REMARK   31  A    between atoms: _67  and  _70
REMARK   32  A    between atoms: _70  and  _71
REMARK   33  A    between atoms: _71  and  _72
REMARK   34  A    between atoms: _74  and  _76
REMARK   35  A    between atoms: _76  and  _77
REMARK   36  A    between atoms: _76  and  _79
REMARK   37  A    between atoms: _79  and  _80
REMARK   38  A    between atoms: _80  and  _81
REMARK   39  A    between atoms: _81  and  _82
REMARK   40  A    between atoms: _82  and  _83
REMARK   41  A    between atoms: _87  and  _89
REMARK   42  A    between atoms: _89  and  _90
REMARK   43  A    between atoms: _89  and  _92
REMARK   44  A    between atoms: _92  and  _93
REMARK   45  A    between atoms: _99  and  _101
REMARK   46  A    between atoms: _101  and  _102
REMARK   47  A    between atoms: _101  and  _104
REMARK   48  A    between atoms: _104  and  _105
REMARK   49  A    between atoms: _108  and  _110
REMARK   50  A    between atoms: _110  and  _111
REMARK   51  A    between atoms: _110  and  _113
REMARK   52  A    between atoms: _113  and  _114
REMARK   53  A    between atoms: _120  and  _122
REMARK   54  A    between atoms: _122  and  _123
REMARK   55  A    between atoms: _122  and  _125
REMARK   56  A    between atoms: _125  and  _126
REMARK   57  A    between atoms: _129  and  _131
REMARK   58  A    between atoms: _131  and  _132
REMARK   59  A    between atoms: _131  and  _134
REMARK   60  A    between atoms: _134  and  _135
REMARK   61  A    between atoms: _141  and  _143
REMARK   62  A    between atoms: _143  and  _144
REMARK   63  A    between atoms: _143  and  _146
REMARK   64  A    between atoms: _146  and  _147
REMARK   65  A    between atoms: _147  and  _148
REMARK   66  A    between atoms: _151  and  _153
REMARK   67  A    between atoms: _153  and  _154
REMARK   68  A    between atoms: _153  and  _156
REMARK   69  A    between atoms: _156  and  _157
REMARK   70  A    between atoms: _160  and  _162
REMARK   71  A    between atoms: _162  and  _163
REMARK   72  A    between atoms: _162  and  _165
REMARK   73  A    between atoms: _165  and  _166
REMARK   74  A    between atoms: _170  and  ZN_370
REMARK   75  A    between atoms: _171  and  _173
REMARK   76  A    between atoms: _173  and  _174
REMARK   77  A    between atoms: _173  and  _176
REMARK   78  A    between atoms: _179  and  _181
REMARK   79  A    between atoms: _181  and  _182
REMARK   80  A    between atoms: _181  and  _184
REMARK   81  A    between atoms: _184  and  _185
REMARK   82  A    between atoms: _185  and  _186
REMARK   83  A    between atoms: _186  and  _187
REMARK   84  A    between atoms: _187  and  _188
REMARK   85  A    between atoms: _192  and  _194
REMARK   86  A    between atoms: _194  and  _195
REMARK   87  A    between atoms: _194  and  _197
REMARK   88  A    between atoms: _197  and  _198
REMARK   89  A    between atoms: _198  and  _199
REMARK   90  A    between atoms: _199  and  _200
REMARK   91  A    between atoms: _200  and  _201
REMARK   92  A    between atoms: _206  and  _207
REMARK   93  A    between atoms: _212  and  _214
REMARK   94  A    between atoms: _214  and  _215
REMARK   95  A    between atoms: _214  and  _217
REMARK   96  A    between atoms: _217  and  _218
REMARK   97  A    between atoms: _221  and  _223
REMARK   98  A    between atoms: _223  and  _224
REMARK   99  A    between atoms: _223  and  _226
REMARK  100  A    between atoms: _226  and  _227
REMARK  101  A    between atoms: _230  and  _232
REMARK  102  A    between atoms: _232  and  _233
REMARK  103  A    between atoms: _235  and  _237
REMARK  104  A    between atoms: _237  and  _238
REMARK  105  A    between atoms: _237  and  _240
REMARK  106  A    between atoms: _240  and  _241
REMARK  107  A    between atoms: _241  and  _242
REMARK  108  A    between atoms: _242  and  _243
REMARK  109  A    between atoms: _243  and  _244
REMARK  110  A    between atoms: _248  and  _250
REMARK  111  A    between atoms: _250  and  _251
REMARK  112  A    between atoms: _250  and  _253
REMARK  113  A    between atoms: _253  and  _254
REMARK  114  A    between atoms: _254  and  _255
REMARK  115  A    between atoms: _257  and  _259
REMARK  116  A    between atoms: _259  and  _260
REMARK  117  A    between atoms: _259  and  _262
REMARK  118  A    between atoms: _262  and  _263
REMARK  119  A    between atoms: _263  and  _264
REMARK  120  A    between atoms: _264  and  _265
REMARK  121  A    between atoms: _265  and  _266
REMARK  122  A    between atoms: _270  and  _272
REMARK  123  A    between atoms: _272  and  _273
REMARK  124  A    between atoms: _275  and  _277
REMARK  125  A    between atoms: _277  and  _278
REMARK  126  A    between atoms: _277  and  _280
REMARK  127  A    between atoms: _280  and  _281
REMARK  128  A    between atoms: _284  and  _286
REMARK  129  A    between atoms: _286  and  _287
REMARK  130  A    between atoms: _290  and  _292
REMARK  131  A    between atoms: _292  and  _293
REMARK  132  A    between atoms: _292  and  _295
REMARK  133  A    between atoms: _295  and  _296
REMARK  134  A    between atoms: _302  and  _304
REMARK  135  A    between atoms: _304  and  _305
REMARK  136  A    between atoms: _304  and  _307
REMARK  137  A    between atoms: _307  and  _308
REMARK  138  A    between atoms: _318  and  _320
REMARK  139  A    between atoms: _320  and  _321
REMARK  140  A    between atoms: _320  and  _323
REMARK  141  A    between atoms: _323  and  _324
REMARK  142  A    between atoms: _324  and  _325
REMARK  143  A    between atoms: _325  and  _327
REMARK  144  A    between atoms: _327  and  ZN_370
REMARK  145  A    between atoms: _328  and  _330
REMARK  146  A    between atoms: _330  and  _331
REMARK  147  A    between atoms: _330  and  _333
REMARK  148  A    between atoms: _333  and  _334
REMARK  149  A    between atoms: _337  and  _339
REMARK  150  A    between atoms: _339  and  _340
REMARK  151  A    between atoms: _339  and  _342
REMARK  152  A    between atoms: _342  and  _343
REMARK  153  A    between atoms: _346  and  _348
REMARK  154  A    between atoms: _348  and  _349
REMARK  155  A    between atoms: _352  and  _354
REMARK  156  A    between atoms: _354  and  _355
REMARK  157  A    between atoms: _354  and  _357
REMARK  158  A    between atoms: _357  and  _358
REMARK  159  A    between atoms: _361  and  _363
REMARK  160  A    between atoms: _363  and  _364
REMARK  161  A    between atoms: _363  and  _366
REMARK  162  A    between atoms: _366  and  _367
REMARK                            x       y       z     vdW  Elec       q    Type
REMARK                         _______ _______ _______ _____ _____    ______ ____
ROOT
ATOM      1  O   HOH     1      26.657  13.338  68.967  0.00  0.00    +0.000 OA
ENDROOT
TORSDOF 0
REMARK  Name = ../refined-set-2016/4kyk/4kyk_pocket.pdb
REMARK  162 active torsions:
REMARK  status: ('A' for Active; 'I' for Inactive)
REMARK    1  A    between atoms: _1  and  _3
REMARK    2  A    between atoms: _3  and  _4
REMARK    3  A    between atoms: _3  and  _6
REMARK    4  A    between atoms: _6  and  _7
REMARK    5  A    between atoms: _7  and  _8
REMARK    6  A    between atoms: _8  and  _9
REMARK    7  A    between atoms: _8  and  _10
REMARK    8  A    between atoms: _9  and  ZN_370
REMARK    9  A    between atoms: _13  and  _15
REMARK   10  A    between atoms: _15  and  _16
REMARK   11  A    between atoms: _15  and  _18
REMARK   12  A    between atoms: _18  and  _19
REMARK   13  A    between atoms: _19  and  _20
REMARK   14  A    between atoms: _22  and  _24
REMARK   15  A    between atoms: _24  and  _25
REMARK   16  A    between atoms: _24  and  _27
REMARK   17  A    between atoms: _27  and  _28
REMARK   18  A    between atoms: _31  and  _33
REMARK   19  A    between atoms: _33  and  _34
REMARK   20  A    between atoms: _33  and  _36
REMARK   21  A    between atoms: _36  and  _37
REMARK   22  A    between atoms: _40  and  _42
REMARK   23  A    between atoms: _42  and  _43
REMARK   24  A    between atoms: _42  and  _45
REMARK   25  A    between atoms: _45  and  _46
REMARK   26  A    between atoms: _53  and  _54
REMARK   27  A    between atoms: _59  and  _61
REMARK   28  A    between atoms: _61  and  _62
REMARK   29  A    between atoms: _65  and  _67
REMARK   30  A    between atoms: _67  and  _68
REMARK   31  A    between atoms: _67  and  _70
REMARK   32  A    between atoms: _70  and  _71
REMARK   33  A    between atoms: _71  and  _72
REMARK   34  A    between atoms: _74  and  _76
REMARK   35  A    between atoms: _76  and  _77
REMARK   36  A    between atoms: _76  and  _79
REMARK   37  A    between atoms: _79  and  _80
REMARK   38  A    between atoms: _80  and  _81
REMARK   39  A    between atoms: _81  and  _82
REMARK   40  A    between atoms: _82  and  _83
REMARK   41  A    between atoms: _87  and  _89
REMARK   42  A    between atoms: _89  and  _90
REMARK   43  A    between atoms: _89  and  _92
REMARK   44  A    between atoms: _92  and  _93
REMARK   45  A    between atoms: _99  and  _101
REMARK   46  A    between atoms: _101  and  _102
REMARK   47  A    between atoms: _101  and  _104
REMARK   48  A    between atoms: _104  and  _105
REMARK   49  A    between atoms: _108  and  _110
REMARK   50  A    between atoms: _110  and  _111
REMARK   51  A    between atoms: _110  and  _113
REMARK   52  A    between atoms: _113  and  _114
REMARK   53  A    between atoms: _120  and  _122
REMARK   54  A    between atoms: _122  and  _123
REMARK   55  A    between atoms: _122  and  _125
REMARK   56  A    between atoms: _125  and  _126
REMARK   57  A    between atoms: _129  and  _131
REMARK   58  A    between atoms: _131  and  _132
REMARK   59  A    between atoms: _131  and  _134
REMARK   60  A    between atoms: _134  and  _135
REMARK   61  A    between atoms: _141  and  _143
REMARK   62  A    between atoms: _143  and  _144
REMARK   63  A    between atoms: _143  and  _146
REMARK   64  A    between atoms: _146  and  _147
REMARK   65  A    between atoms: _147  and  _148
REMARK   66  A    between atoms: _151  and  _153
REMARK   67  A    between atoms: _153  and  _154
REMARK   68  A    between atoms: _153  and  _156
REMARK   69  A    between atoms: _156  and  _157
REMARK   70  A    between atoms: _160  and  _162
REMARK   71  A    between atoms: _162  and  _163
REMARK   72  A    between atoms: _162  and  _165
REMARK   73  A    between atoms: _165  and  _166
REMARK   74  A    between atoms: _170  and  ZN_370
REMARK   75  A    between atoms: _171  and  _173
REMARK   76  A    between atoms: _173  and  _174
REMARK   77  A    between atoms: _173  and  _176
REMARK   78  A    between atoms: _179  and  _181
REMARK   79  A    between atoms: _181  and  _182
REMARK   80  A    between atoms: _181  and  _184
REMARK   81  A    between atoms: _184  and  _185
REMARK   82  A    between atoms: _185  and  _186
REMARK   83  A    between atoms: _186  and  _187
REMARK   84  A    between atoms: _187  and  _188
REMARK   85  A    between atoms: _192  and  _194
REMARK   86  A    between atoms: _194  and  _195
REMARK   87  A    between atoms: _194  and  _197
REMARK   88  A    between atoms: _197  and  _198
REMARK   89  A    between atoms: _198  and  _199
REMARK   90  A    between atoms: _199  and  _200
REMARK   91  A    between atoms: _200  and  _201
REMARK   92  A    between atoms: _206  and  _207
REMARK   93  A    between atoms: _212  and  _214
REMARK   94  A    between atoms: _214  and  _215
REMARK   95  A    between atoms: _214  and  _217
REMARK   96  A    between atoms: _217  and  _218
REMARK   97  A    between atoms: _221  and  _223
REMARK   98  A    between atoms: _223  and  _224
REMARK   99  A    between atoms: _223  and  _226
REMARK  100  A    between atoms: _226  and  _227
REMARK  101  A    between atoms: _230  and  _232
REMARK  102  A    between atoms: _232  and  _233
REMARK  103  A    between atoms: _235  and  _237
REMARK  104  A    between atoms: _237  and  _238
REMARK  105  A    between atoms: _237  and  _240
REMARK  106  A    between atoms: _240  and  _241
REMARK  107  A    between atoms: _241  and  _242
REMARK  108  A    between atoms: _242  and  _243
REMARK  109  A    between atoms: _243  and  _244
REMARK  110  A    between atoms: _248  and  _250
REMARK  111  A    between atoms: _250  and  _251
REMARK  112  A    between atoms: _250  and  _253
REMARK  113  A    between atoms: _253  and  _254
REMARK  114  A    between atoms: _254  and  _255
REMARK  115  A    between atoms: _257  and  _259
REMARK  116  A    between atoms: _259  and  _260
REMARK  117  A    between atoms: _259  and  _262
REMARK  118  A    between atoms: _262  and  _263
REMARK  119  A    between atoms: _263  and  _264
REMARK  120  A    between atoms: _264  and  _265
REMARK  121  A    between atoms: _265  and  _266
REMARK  122  A    between atoms: _270  and  _272
REMARK  123  A    between atoms: _272  and  _273
REMARK  124  A    between atoms: _275  and  _277
REMARK  125  A    between atoms: _277  and  _278
REMARK  126  A    between atoms: _277  and  _280
REMARK  127  A    between atoms: _280  and  _281
REMARK  128  A    between atoms: _284  and  _286
REMARK  129  A    between atoms: _286  and  _287
REMARK  130  A    between atoms: _290  and  _292
REMARK  131  A    between atoms: _292  and  _293
REMARK  132  A    between atoms: _292  and  _295
REMARK  133  A    between atoms: _295  and  _296
REMARK  134  A    between atoms: _302  and  _304
REMARK  135  A    between atoms: _304  and  _305
REMARK  136  A    between atoms: _304  and  _307
REMARK  137  A    between atoms: _307  and  _308
REMARK  138  A    between atoms: _318  and  _320
REMARK  139  A    between atoms: _320  and  _321
REMARK  140  A    between atoms: _320  and  _323
REMARK  141  A    between atoms: _323  and  _324
REMARK  142  A    between atoms: _324  and  _325
REMARK  143  A    between atoms: _325  and  _327
REMARK  144  A    between atoms: _327  and  ZN_370
REMARK  145  A    between atoms: _328  and  _330
REMARK  146  A    between atoms: _330  and  _331
REMARK  147  A    between atoms: _330  and  _333
REMARK  148  A    between atoms: _333  and  _334
REMARK  149  A    between atoms: _337  and  _339
REMARK  150  A    between atoms: _339  and  _340
REMARK  151  A    between atoms: _339  and  _342
REMARK  152  A    between atoms: _342  and  _343
REMARK  153  A    between atoms: _346  and  _348
REMARK  154  A    between atoms: _348  and  _349
REMARK  155  A    between atoms: _352  and  _354
REMARK  156  A    between atoms: _354  and  _355
REMARK  157  A    between atoms: _354  and  _357
REMARK  158  A    between atoms: _357  and  _358
REMARK  159  A    between atoms: _361  and  _363
REMARK  160  A    between atoms: _363  and  _364
REMARK  161  A    between atoms: _363  and  _366
REMARK  162  A    between atoms: _366  and  _367
REMARK                            x       y       z     vdW  Elec       q    Type
REMARK                         _______ _______ _______ _____ _____    ______ ____
ROOT
ATOM      1  O   HOH     1      20.561  18.467  56.769  0.00  0.00    +0.000 OA
ENDROOT
TORSDOF 0
REMARK  Name = ../refined-set-2016/4kyk/4kyk_pocket.pdb
REMARK  162 active torsions:
REMARK  status: ('A' for Active; 'I' for Inactive)
REMARK    1  A    between atoms: _1  and  _3
REMARK    2  A    between atoms: _3  and  _4
REMARK    3  A    between atoms: _3  and  _6
REMARK    4  A    between atoms: _6  and  _7
REMARK    5  A    between atoms: _7  and  _8
REMARK    6  A    between atoms: _8  and  _9
REMARK    7  A    between atoms: _8  and  _10
REMARK    8  A    between atoms: _9  and  ZN_370
REMARK    9  A    between atoms: _13  and  _15
REMARK   10  A    between atoms: _15  and  _16
REMARK   11  A    between atoms: _15  and  _18
REMARK   12  A    between atoms: _18  and  _19
REMARK   13  A    between atoms: _19  and  _20
REMARK   14  A    between atoms: _22  and  _24
REMARK   15  A    between atoms: _24  and  _25
REMARK   16  A    between atoms: _24  and  _27
REMARK   17  A    between atoms: _27  and  _28
REMARK   18  A    between atoms: _31  and  _33
REMARK   19  A    between atoms: _33  and  _34
REMARK   20  A    between atoms: _33  and  _36
REMARK   21  A    between atoms: _36  and  _37
REMARK   22  A    between atoms: _40  and  _42
REMARK   23  A    between atoms: _42  and  _43
REMARK   24  A    between atoms: _42  and  _45
REMARK   25  A    between atoms: _45  and  _46
REMARK   26  A    between atoms: _53  and  _54
REMARK   27  A    between atoms: _59  and  _61
REMARK   28  A    between atoms: _61  and  _62
REMARK   29  A    between atoms: _65  and  _67
REMARK   30  A    between atoms: _67  and  _68
REMARK   31  A    between atoms: _67  and  _70
REMARK   32  A    between atoms: _70  and  _71
REMARK   33  A    between atoms: _71  and  _72
REMARK   34  A    between atoms: _74  and  _76
REMARK   35  A    between atoms: _76  and  _77
REMARK   36  A    between atoms: _76  and  _79
REMARK   37  A    between atoms: _79  and  _80
REMARK   38  A    between atoms: _80  and  _81
REMARK   39  A    between atoms: _81  and  _82
REMARK   40  A    between atoms: _82  and  _83
REMARK   41  A    between atoms: _87  and  _89
REMARK   42  A    between atoms: _89  and  _90
REMARK   43  A    between atoms: _89  and  _92
REMARK   44  A    between atoms: _92  and  _93
REMARK   45  A    between atoms: _99  and  _101
REMARK   46  A    between atoms: _101  and  _102
REMARK   47  A    between atoms: _101  and  _104
REMARK   48  A    between atoms: _104  and  _105
REMARK   49  A    between atoms: _108  and  _110
REMARK   50  A    between atoms: _110  and  _111
REMARK   51  A    between atoms: _110  and  _113
REMARK   52  A    between atoms: _113  and  _114
REMARK   53  A    between atoms: _120  and  _122
REMARK   54  A    between atoms: _122  and  _123
REMARK   55  A    between atoms: _122  and  _125
REMARK   56  A    between atoms: _125  and  _126
REMARK   57  A    between atoms: _129  and  _131
REMARK   58  A    between atoms: _131  and  _132
REMARK   59  A    between atoms: _131  and  _134
REMARK   60  A    between atoms: _134  and  _135
REMARK   61  A    between atoms: _141  and  _143
REMARK   62  A    between atoms: _143  and  _144
REMARK   63  A    between atoms: _143  and  _146
REMARK   64  A    between atoms: _146  and  _147
REMARK   65  A    between atoms: _147  and  _148
REMARK   66  A    between atoms: _151  and  _153
REMARK   67  A    between atoms: _153  and  _154
REMARK   68  A    between atoms: _153  and  _156
REMARK   69  A    between atoms: _156  and  _157
REMARK   70  A    between atoms: _160  and  _162
REMARK   71  A    between atoms: _162  and  _163
REMARK   72  A    between atoms: _162  and  _165
REMARK   73  A    between atoms: _165  and  _166
REMARK   74  A    between atoms: _170  and  ZN_370
REMARK   75  A    between atoms: _171  and  _173
REMARK   76  A    between atoms: _173  and  _174
REMARK   77  A    between atoms: _173  and  _176
REMARK   78  A    between atoms: _179  and  _181
REMARK   79  A    between atoms: _181  and  _182
REMARK   80  A    between atoms: _181  and  _184
REMARK   81  A    between atoms: _184  and  _185
REMARK   82  A    between atoms: _185  and  _186
REMARK   83  A    between atoms: _186  and  _187
REMARK   84  A    between atoms: _187  and  _188
REMARK   85  A    between atoms: _192  and  _194
REMARK   86  A    between atoms: _194  and  _195
REMARK   87  A    between atoms: _194  and  _197
REMARK   88  A    between atoms: _197  and  _198
REMARK   89  A    between atoms: _198  and  _199
REMARK   90  A    between atoms: _199  and  _200
REMARK   91  A    between atoms: _200  and  _201
REMARK   92  A    between atoms: _206  and  _207
REMARK   93  A    between atoms: _212  and  _214
REMARK   94  A    between atoms: _214  and  _215
REMARK   95  A    between atoms: _214  and  _217
REMARK   96  A    between atoms: _217  and  _218
REMARK   97  A    between atoms: _221  and  _223
REMARK   98  A    between atoms: _223  and  _224
REMARK   99  A    between atoms: _223  and  _226
REMARK  100  A    between atoms: _226  and  _227
REMARK  101  A    between atoms: _230  and  _232
REMARK  102  A    between atoms: _232  and  _233
REMARK  103  A    between atoms: _235  and  _237
REMARK  104  A    between atoms: _237  and  _238
REMARK  105  A    between atoms: _237  and  _240
REMARK  106  A    between atoms: _240  and  _241
REMARK  107  A    between atoms: _241  and  _242
REMARK  108  A    between atoms: _242  and  _243
REMARK  109  A    between atoms: _243  and  _244
REMARK  110  A    between atoms: _248  and  _250
REMARK  111  A    between atoms: _250  and  _251
REMARK  112  A    between atoms: _250  and  _253
REMARK  113  A    between atoms: _253  and  _254
REMARK  114  A    between atoms: _254  and  _255
REMARK  115  A    between atoms: _257  and  _259
REMARK  116  A    between atoms: _259  and  _260
REMARK  117  A    between atoms: _259  and  _262
REMARK  118  A    between atoms: _262  and  _263
REMARK  119  A    between atoms: _263  and  _264
REMARK  120  A    between atoms: _264  and  _265
REMARK  121  A    between atoms: _265  and  _266
REMARK  122  A    between atoms: _270  and  _272
REMARK  123  A    between atoms: _272  and  _273
REMARK  124  A    between atoms: _275  and  _277
REMARK  125  A    between atoms: _277  and  _278
REMARK  126  A    between atoms: _277  and  _280
REMARK  127  A    between atoms: _280  and  _281
REMARK  128  A    between atoms: _284  and  _286
REMARK  129  A    between atoms: _286  and  _287
REMARK  130  A    between atoms: _290  and  _292
REMARK  131  A    between atoms: _292  and  _293
REMARK  132  A    between atoms: _292  and  _295
REMARK  133  A    between atoms: _295  and  _296
REMARK  134  A    between atoms: _302  and  _304
REMARK  135  A    between atoms: _304  and  _305
REMARK  136  A    between atoms: _304  and  _307
REMARK  137  A    between atoms: _307  and  _308
REMARK  138  A    between atoms: _318  and  _320
REMARK  139  A    between atoms: _320  and  _321
REMARK  140  A    between atoms: _320  and  _323
REMARK  141  A    between atoms: _323  and  _324
REMARK  142  A    between atoms: _324  and  _325
REMARK  143  A    between atoms: _325  and  _327
REMARK  144  A    between atoms: _327  and  ZN_370
REMARK  145  A    between atoms: _328  and  _330
REMARK  146  A    between atoms: _330  and  _331
REMARK  147  A    between atoms: _330  and  _333
REMARK  148  A    between atoms: _333  and  _334
REMARK  149  A    between atoms: _337  and  _339
REMARK  150  A    between atoms: _339  and  _340
REMARK  151  A    between atoms: _339  and  _342
REMARK  152  A    between atoms: _342  and  _343
REMARK  153  A    between atoms: _346  and  _348
REMARK  154  A    between atoms: _348  and  _349
REMARK  155  A    between atoms: _352  and  _354
REMARK  156  A    between atoms: _354  and  _355
REMARK  157  A    between atoms: _354  and  _357
REMARK  158  A    between atoms: _357  and  _358
REMARK  159  A    between atoms: _361  and  _363
REMARK  160  A    between atoms: _363  and  _364
REMARK  161  A    between atoms: _363  and  _366
REMARK  162  A    between atoms: _366  and  _367
REMARK                            x       y       z     vdW  Elec       q    Type
REMARK                         _______ _______ _______ _____ _____    ______ ____
ROOT
ATOM      1  O   HOH     1      11.860  12.565  67.330  0.00  0.00    +0.000 OA
ENDROOT
TORSDOF 0
