REMARK  Name = ../refined-set-2016/4xu1/4xu1_pocket.pdb
REMARK  241 active torsions:
REMARK  status: ('A' for Active; 'I' for Inactive)
REMARK    1  A    between atoms: _1  and  _3
REMARK    2  A    between atoms: _3  and  _4
REMARK    3  A    between atoms: _3  and  _6
REMARK    4  A    between atoms: _6  and  _7
REMARK    5  A    between atoms: _10  and  _12
REMARK    6  A    between atoms: _12  and  _13
REMARK    7  A    between atoms: _15  and  _17
REMARK    8  A    between atoms: _17  and  _18
REMARK    9  A    between atoms: _17  and  _20
REMARK   10  A    between atoms: _20  and  _21
REMARK   11  A    between atoms: _23  and  _25
REMARK   12  A    between atoms: _25  and  _26
REMARK   13  A    between atoms: _25  and  _28
REMARK   14  A    between atoms: _28  and  _29
REMARK   15  A    between atoms: _32  and  _34
REMARK   16  A    between atoms: _34  and  _35
REMARK   17  A    between atoms: _34  and  _37
REMARK   18  A    between atoms: _37  and  _38
REMARK   19  A    between atoms: _43  and  _45
REMARK   20  A    between atoms: _45  and  _46
REMARK   21  A    between atoms: _49  and  _51
REMARK   22  A    between atoms: _51  and  _52
REMARK   23  A    between atoms: _51  and  _54
REMARK   24  A    between atoms: _54  and  _55
REMARK   25  A    between atoms: _58  and  _60
REMARK   26  A    between atoms: _60  and  _61
REMARK   27  A    between atoms: _60  and  _63
REMARK   28  A    between atoms: _63  and  _64
REMARK   29  A    between atoms: _67  and  _69
REMARK   30  A    between atoms: _69  and  _70
REMARK   31  A    between atoms: _69  and  _72
REMARK   32  A    between atoms: _72  and  _73
REMARK   33  A    between atoms: _76  and  _78
REMARK   34  A    between atoms: _78  and  _79
REMARK   35  A    between atoms: _78  and  _81
REMARK   36  A    between atoms: _81  and  _82
REMARK   37  A    between atoms: _85  and  _87
REMARK   38  A    between atoms: _87  and  _88
REMARK   39  A    between atoms: _91  and  _93
REMARK   40  A    between atoms: _93  and  _94
REMARK   41  A    between atoms: _93  and  _96
REMARK   42  A    between atoms: _96  and  _97
REMARK   43  A    between atoms: _97  and  _98
REMARK   44  A    between atoms: _103  and  _105
REMARK   45  A    between atoms: _105  and  _106
REMARK   46  A    between atoms: _105  and  _108
REMARK   47  A    between atoms: _108  and  _109
REMARK   48  A    between atoms: _112  and  _114
REMARK   49  A    between atoms: _114  and  _115
REMARK   50  A    between atoms: _118  and  _120
REMARK   51  A    between atoms: _120  and  _121
REMARK   52  A    between atoms: _123  and  _125
REMARK   53  A    between atoms: _125  and  _126
REMARK   54  A    between atoms: _125  and  _128
REMARK   55  A    between atoms: _128  and  _129
REMARK   56  A    between atoms: _129  and  _130
REMARK   57  A    between atoms: _130  and  _131
REMARK   58  A    between atoms: _140  and  _142
REMARK   59  A    between atoms: _142  and  _143
REMARK   60  A    between atoms: _145  and  _147
REMARK   61  A    between atoms: _147  and  _148
REMARK   62  A    between atoms: _147  and  _150
REMARK   63  A    between atoms: _150  and  _151
REMARK   64  A    between atoms: _151  and  _152
REMARK   65  A    between atoms: _152  and  _153
REMARK   66  A    between atoms: _162  and  _164
REMARK   67  A    between atoms: _164  and  _165
REMARK   68  A    between atoms: _164  and  _167
REMARK   69  A    between atoms: _167  and  _168
REMARK   70  A    between atoms: _173  and  _175
REMARK   71  A    between atoms: _175  and  _176
REMARK   72  A    between atoms: _178  and  _180
REMARK   73  A    between atoms: _180  and  _181
REMARK   74  A    between atoms: _180  and  _183
REMARK   75  A    between atoms: _183  and  _184
REMARK   76  A    between atoms: _184  and  _185
REMARK   77  A    between atoms: _185  and  _186
REMARK   78  A    between atoms: _195  and  _197
REMARK   79  A    between atoms: _197  and  _198
REMARK   80  A    between atoms: _200  and  _202
REMARK   81  A    between atoms: _202  and  _203
REMARK   82  A    between atoms: _202  and  _205
REMARK   83  A    between atoms: _205  and  _206
REMARK   84  A    between atoms: _216  and  _218
REMARK   85  A    between atoms: _218  and  _219
REMARK   86  A    between atoms: _222  and  _224
REMARK   87  A    between atoms: _224  and  _225
REMARK   88  A    between atoms: _228  and  _230
REMARK   89  A    between atoms: _230  and  _231
REMARK   90  A    between atoms: _230  and  _233
REMARK   91  A    between atoms: _233  and  _234
REMARK   92  A    between atoms: _237  and  _239
REMARK   93  A    between atoms: _239  and  _240
REMARK   94  A    between atoms: _243  and  _245
REMARK   95  A    between atoms: _245  and  _246
REMARK   96  A    between atoms: _245  and  _248
REMARK   97  A    between atoms: _248  and  _249
REMARK   98  A    between atoms: _249  and  _250
REMARK   99  A    between atoms: _255  and  _257
REMARK  100  A    between atoms: _257  and  _258
REMARK  101  A    between atoms: _257  and  _260
REMARK  102  A    between atoms: _260  and  _261
REMARK  103  A    between atoms: _264  and  _266
REMARK  104  A    between atoms: _266  and  _267
REMARK  105  A    between atoms: _266  and  _269
REMARK  106  A    between atoms: _269  and  _270
REMARK  107  A    between atoms: _273  and  _275
REMARK  108  A    between atoms: _275  and  _276
REMARK  109  A    between atoms: _275  and  _278
REMARK  110  A    between atoms: _278  and  _279
REMARK  111  A    between atoms: _282  and  _284
REMARK  112  A    between atoms: _284  and  _285
REMARK  113  A    between atoms: _284  and  _287
REMARK  114  A    between atoms: _287  and  _288
REMARK  115  A    between atoms: _290  and  _292
REMARK  116  A    between atoms: _292  and  _293
REMARK  117  A    between atoms: _292  and  _295
REMARK  118  A    between atoms: _298  and  _300
REMARK  119  A    between atoms: _300  and  _301
REMARK  120  A    between atoms: _300  and  _303
REMARK  121  A    between atoms: _303  and  _304
REMARK  122  A    between atoms: _304  and  _305
REMARK  123  A    between atoms: _305  and  _306
REMARK  124  A    between atoms: _306  and  _307
REMARK  125  A    between atoms: _311  and  _313
REMARK  126  A    between atoms: _313  and  _314
REMARK  127  A    between atoms: _313  and  _316
REMARK  128  A    between atoms: _316  and  _317
REMARK  129  A    between atoms: _328  and  _329
REMARK  130  A    between atoms: _334  and  _336
REMARK  131  A    between atoms: _336  and  _337
REMARK  132  A    between atoms: _336  and  _339
REMARK  133  A    between atoms: _339  and  _340
REMARK  134  A    between atoms: _345  and  _347
REMARK  135  A    between atoms: _347  and  _348
REMARK  136  A    between atoms: _347  and  _350
REMARK  137  A    between atoms: _350  and  _351
REMARK  138  A    between atoms: _354  and  _356
REMARK  139  A    between atoms: _356  and  _357
REMARK  140  A    between atoms: _356  and  _359
REMARK  141  A    between atoms: _362  and  _364
REMARK  142  A    between atoms: _364  and  _365
REMARK  143  A    between atoms: _367  and  _369
REMARK  144  A    between atoms: _369  and  _370
REMARK  145  A    between atoms: _369  and  _372
REMARK  146  A    between atoms: _372  and  _373
REMARK  147  A    between atoms: _373  and  _374
REMARK  148  A    between atoms: _374  and  _375
REMARK  149  A    between atoms: _375  and  _376
REMARK  150  A    between atoms: _380  and  _382
REMARK  151  A    between atoms: _382  and  _383
REMARK  152  A    between atoms: _382  and  _385
REMARK  153  A    between atoms: _385  and  _386
REMARK  154  A    between atoms: _389  and  _391
REMARK  155  A    between atoms: _391  and  _392
REMARK  156  A    between atoms: _395  and  _397
REMARK  157  A    between atoms: _397  and  _398
REMARK  158  A    between atoms: _400  and  _402
REMARK  159  A    between atoms: _402  and  _403
REMARK  160  A    between atoms: _402  and  _405
REMARK  161  A    between atoms: _405  and  _406
REMARK  162  A    between atoms: _409  and  _411
REMARK  163  A    between atoms: _411  and  _412
REMARK  164  A    between atoms: _411  and  _414
REMARK  165  A    between atoms: _414  and  _415
REMARK  166  A    between atoms: _418  and  _420
REMARK  167  A    between atoms: _420  and  _421
REMARK  168  A    between atoms: _424  and  _426
REMARK  169  A    between atoms: _426  and  _427
REMARK  170  A    between atoms: _426  and  _429
REMARK  171  A    between atoms: _429  and  _430
REMARK  172  A    between atoms: _430  and  _431
REMARK  173  A    between atoms: _434  and  _436
REMARK  174  A    between atoms: _436  and  _437
REMARK  175  A    between atoms: _436  and  _439
REMARK  176  A    between atoms: _442  and  _444
REMARK  177  A    between atoms: _444  and  _445
REMARK  178  A    between atoms: _444  and  _447
REMARK  179  A    between atoms: _447  and  _448
REMARK  180  A    between atoms: _451  and  _453
REMARK  181  A    between atoms: _453  and  _454
REMARK  182  A    between atoms: _456  and  _458
REMARK  183  A    between atoms: _458  and  _459
REMARK  184  A    between atoms: _458  and  _461
REMARK  185  A    between atoms: _464  and  _466
REMARK  186  A    between atoms: _466  and  _467
REMARK  187  A    between atoms: _469  and  _471
REMARK  188  A    between atoms: _471  and  _472
REMARK  189  A    between atoms: _471  and  _474
REMARK  190  A    between atoms: _474  and  _475
REMARK  191  A    between atoms: _478  and  _480
REMARK  192  A    between atoms: _480  and  _481
REMARK  193  A    between atoms: _480  and  _483
REMARK  194  A    between atoms: _483  and  _484
REMARK  195  A    between atoms: _489  and  _491
REMARK  196  A    between atoms: _491  and  _492
REMARK  197  A    between atoms: _491  and  _494
REMARK  198  A    between atoms: _497  and  _499
REMARK  199  A    between atoms: _499  and  _500
REMARK  200  A    between atoms: _499  and  _502
REMARK  201  A    between atoms: _502  and  _503
REMARK  202  A    between atoms: _503  and  _504
REMARK  203  A    between atoms: _509  and  _511
REMARK  204  A    between atoms: _511  and  _512
REMARK  205  A    between atoms: _516  and  _517
REMARK  206  A    between atoms: _522  and  _524
REMARK  207  A    between atoms: _524  and  _525
REMARK  208  A    between atoms: _524  and  _527
REMARK  209  A    between atoms: _527  and  _528
REMARK  210  A    between atoms: _528  and  _529
REMARK  211  A    between atoms: _532  and  _534
REMARK  212  A    between atoms: _534  and  _535
REMARK  213  A    between atoms: _534  and  _537
REMARK  214  A    between atoms: _540  and  _542
REMARK  215  A    between atoms: _542  and  _543
REMARK  216  A    between atoms: _542  and  _545
REMARK  217  A    between atoms: _545  and  _546
REMARK  218  A    between atoms: _550  and  _551
REMARK  219  A    between atoms: _556  and  _558
REMARK  220  A    between atoms: _558  and  _559
REMARK  221  A    between atoms: _558  and  _561
REMARK  222  A    between atoms: _561  and  _562
REMARK  223  A    between atoms: _565  and  _567
REMARK  224  A    between atoms: _567  and  _568
REMARK  225  A    between atoms: _571  and  _573
REMARK  226  A    between atoms: _573  and  _574
REMARK  227  A    between atoms: _573  and  _576
REMARK  228  A    between atoms: _576  and  _577
REMARK  229  A    between atoms: _580  and  _582
REMARK  230  A    between atoms: _582  and  _583
REMARK  231  A    between atoms: _582  and  _585
REMARK  232  A    between atoms: _585  and  _586
REMARK  233  A    between atoms: _588  and  _590
REMARK  234  A    between atoms: _590  and  _591
REMARK  235  A    between atoms: _593  and  _595
REMARK  236  A    between atoms: _595  and  _596
REMARK  237  A    between atoms: _595  and  _598
REMARK  238  A    between atoms: _598  and  _599
REMARK  239  A    between atoms: _602  and  _604
REMARK  240  A    between atoms: _604  and  _605
REMARK  241  A    between atoms: _604  and  _607
REMARK                            x       y       z     vdW  Elec       q    Type
REMARK                         _______ _______ _______ _____ _____    ______ ____
ROOT
ATOM      1  C   THR A   4       1.102 -14.333  17.504  0.00  0.00    +0.243 C 
ATOM      2  O   THR A   4       1.451 -15.494  17.709  0.00  0.00    -0.273 OA
ATOM      3  N   ASN A   5       0.912 -13.862  16.276  0.00  0.00    -0.297 N 
ATOM      4  H   ASN A   5       0.576 -12.887  16.137  0.00  0.00    +0.150 HD
ENDROOT
BRANCH   3   5
ATOM      5  CA  ASN A   5       1.175 -14.714  15.125  0.00  0.00    +0.158 C 
BRANCH   5   6
ATOM      6  C   ASN A   5       2.644 -15.127  15.085  0.00  0.00    +0.241 C 
ATOM      7  N   ALA A   6       3.524 -14.158  15.291  0.00  0.00    -0.297 N 
ATOM      8  H   ALA A   6       3.183 -13.188  15.445  0.00  0.00    +0.150 HD
ATOM      9  O   ASN A   5       2.962 -16.297  14.888  0.00  0.00    -0.273 OA
BRANCH   7  10
ATOM     10  CA  ALA A   6       4.962 -14.419  15.307  0.00  0.00    +0.149 C 
ATOM     11  CB  ALA A   6       5.745 -13.132  15.522  0.00  0.00    +0.031 C 
BRANCH  10  12
ATOM     12  C   ALA A   6       5.316 -15.427  16.385  0.00  0.00    +0.241 C 
ATOM     13  N   ASP A   7       4.722 -15.258  17.562  0.00  0.00    -0.297 N 
ATOM     14  H   ASP A   7       4.053 -14.472  17.694  0.00  0.00    +0.150 HD
ATOM     15  O   ALA A   6       6.120 -16.335  16.163  0.00  0.00    -0.273 OA
BRANCH  13  16
ATOM     16  CA  ASP A   7       5.000 -16.166  18.672  0.00  0.00    +0.160 C 
BRANCH  16  17
ATOM     17  C   ASP A   7       4.600 -17.617  18.373  0.00  0.00    +0.241 C 
ATOM     18  O   ASP A   7       5.351 -18.544  18.676  0.00  0.00    -0.273 OA
ATOM     19  N   LEU A   8       3.415 -17.822  17.806  0.00  0.00    -0.298 N 
ATOM     20  H   LEU A   8       2.799 -17.016  17.579  0.00  0.00    +0.150 HD
BRANCH  19  21
ATOM     21  CA  LEU A   8       2.982 -19.181  17.504  0.00  0.00    +0.137 C 
BRANCH  21  22
ATOM     22  C   LEU A   8       3.809 -19.773  16.380  0.00  0.00    +0.227 C 
ATOM     23  O   LEU A   8       4.166 -20.959  16.423  0.00  0.00    -0.286 OA
ENDBRANCH  21  22
BRANCH  21  24
ATOM     24  CB  LEU A   8       1.489 -19.226  17.148  0.00  0.00    +0.028 C 
BRANCH  24  25
ATOM     25  CG  LEU A   8       0.525 -19.225  18.342  0.00  0.00    +0.002 C 
ATOM     26  CD2 LEU A   8       1.043 -19.995  19.574  0.00  0.00    +0.000 C 
ATOM     27  CD1 LEU A   8      -0.843 -19.797  17.911  0.00  0.00    +0.000 C 
ENDBRANCH  24  25
ENDBRANCH  21  24
ENDBRANCH  19  21
ENDBRANCH  16  17
BRANCH  16  28
ATOM     28  CB  ASP A   7       4.294 -15.696  19.939  0.00  0.00    +0.143 C 
BRANCH  28  29
ATOM     29  CG  ASP A   7       4.817 -14.357  20.436  0.00  0.00    +0.367 C 
ATOM     30  OD2 ASP A   7       4.175 -13.770  21.333  0.00  0.00    -0.246 OA
ATOM     31  OD1 ASP A   7       5.861 -13.890  19.930  0.00  0.00    -0.246 OA
ENDBRANCH  28  29
ENDBRANCH  16  28
ENDBRANCH  13  16
ENDBRANCH  10  12
ENDBRANCH   7  10
ENDBRANCH   5   6
BRANCH   5  32
ATOM     32  CB  ASN A   5       0.810 -14.004  13.822  0.00  0.00    +0.114 C 
BRANCH  32  33
ATOM     33  CG  ASN A   5      -0.536 -14.435  13.279  0.00  0.00    +0.222 C 
ATOM     34  OD1 ASN A   5      -1.456 -14.744  14.036  0.00  0.00    -0.275 OA
ATOM     35  ND2 ASN A   5      -0.661 -14.448  11.958  0.00  0.00    -0.329 N 
ATOM     36 HD21 ASN A   5      -1.564 -14.727  11.524  0.00  0.00    +0.145 HD
ATOM     37 HD22 ASN A   5       0.144 -14.179  11.357  0.00  0.00    +0.145 HD
ENDBRANCH  32  33
ENDBRANCH   5  32
ENDBRANCH   3   5
BRANCH   1  38
ATOM     38  CA  THR A   4       0.899 -13.364  18.669  0.00  0.00    +0.176 C 
BRANCH  38  40
ATOM     39  C   SER A   3       2.582 -11.756  18.027  0.00  0.00    +0.243 C 
ATOM     40  N   THR A   4       1.300 -12.001  18.302  0.00  0.00    -0.295 N 
ATOM     41  H   THR A   4       0.595 -11.238  18.257  0.00  0.00    +0.150 HD
ATOM     42  O   SER A   3       3.445 -12.633  18.058  0.00  0.00    -0.273 OA
BRANCH  39  43
ATOM     43  CA  SER A   3       2.966 -10.327  17.660  0.00  0.00    +0.178 C 
BRANCH  43  45
ATOM     44  C   GLY A   2       4.091  -8.516  18.848  0.00  0.00    +0.243 C 
ATOM     45  N   SER A   3       3.945  -9.817  18.615  0.00  0.00    -0.295 N 
ATOM     46  H   SER A   3       4.547 -10.492  19.129  0.00  0.00    +0.150 HD
ATOM     47  O   GLY A   2       3.415  -7.656  18.298  0.00  0.00    -0.273 OA
BRANCH  44  48
ATOM     48  CA  GLY A   2       5.179  -8.135  19.828  0.00  0.00    +0.176 C 
BRANCH  48  51
ATOM     49  C   THR A   1       4.029  -8.521  21.925  0.00  0.00    +0.241 C 
ATOM     50  O   THR A   1       3.250  -7.580  21.729  0.00  0.00    -0.274 OA
ATOM     51  N   GLY A   2       5.009  -8.828  21.089  0.00  0.00    -0.295 N 
ATOM     52  H   GLY A   2       5.674  -9.586  21.344  0.00  0.00    +0.150 HD
BRANCH  49  53
ATOM     53  CA  THR A   1       3.925  -9.401  23.172  0.00  0.00    +0.172 C 
BRANCH  53  54
ATOM     54  N   THR A   1       2.936  -8.853  24.073  0.00  0.00    -0.236 NA
ATOM     55  H   THR A   1       2.163  -8.266  23.698  0.00  0.00    +0.142 HD
ENDBRANCH  53  54
BRANCH  53  56
ATOM     56  CB  THR A   1       3.600 -10.857  22.790  0.00  0.00    +0.135 C 
ATOM     57  CG2 THR A   1       2.346 -10.932  21.886  0.00  0.00    +0.034 C 
BRANCH  56  58
ATOM     58  OG1 THR A   1       4.727 -11.456  22.135  0.00  0.00    -0.383 OA
ATOM     59  HG1 THR A   1       4.508 -12.391  21.894  0.00  0.00    +0.210 HD
ENDBRANCH  56  58
ENDBRANCH  53  56
ENDBRANCH  49  53
ENDBRANCH  48  51
ENDBRANCH  44  48
ENDBRANCH  43  45
BRANCH  43  60
ATOM     60  CB  SER A   3       3.526 -10.279  16.236  0.00  0.00    +0.166 C 
BRANCH  60  61
ATOM     61  OG  SER A   3       2.761 -11.095  15.341  0.00  0.00    -0.380 OA
ATOM     62  H   SER A   3       1.825 -10.773  15.321  0.00  0.00    +0.211 HD
ENDBRANCH  60  61
ENDBRANCH  43  60
ENDBRANCH  39  43
ENDBRANCH  38  40
BRANCH  38  63
ATOM     63  CB  THR A   4      -0.583 -13.453  19.141  0.00  0.00    +0.137 C 
ATOM     64  CG2 THR A   4      -0.763 -12.731  20.452  0.00  0.00    +0.034 C 
BRANCH  63  65
ATOM     65  OG1 THR A   4      -1.444 -12.893  18.143  0.00  0.00    -0.382 OA
ATOM     66  HG1 THR A   4      -1.338 -13.397  17.297  0.00  0.00    +0.210 HD
ENDBRANCH  63  65
ENDBRANCH  38  63
ENDBRANCH   1  38
TORSDOF 28
REMARK  Name = ../refined-set-2016/4xu1/4xu1_pocket.pdb
REMARK  241 active torsions:
REMARK  status: ('A' for Active; 'I' for Inactive)
REMARK    1  A    between atoms: _1  and  _3
REMARK    2  A    between atoms: _3  and  _4
REMARK    3  A    between atoms: _3  and  _6
REMARK    4  A    between atoms: _6  and  _7
REMARK    5  A    between atoms: _10  and  _12
REMARK    6  A    between atoms: _12  and  _13
REMARK    7  A    between atoms: _15  and  _17
REMARK    8  A    between atoms: _17  and  _18
REMARK    9  A    between atoms: _17  and  _20
REMARK   10  A    between atoms: _20  and  _21
REMARK   11  A    between atoms: _23  and  _25
REMARK   12  A    between atoms: _25  and  _26
REMARK   13  A    between atoms: _25  and  _28
REMARK   14  A    between atoms: _28  and  _29
REMARK   15  A    between atoms: _32  and  _34
REMARK   16  A    between atoms: _34  and  _35
REMARK   17  A    between atoms: _34  and  _37
REMARK   18  A    between atoms: _37  and  _38
REMARK   19  A    between atoms: _43  and  _45
REMARK   20  A    between atoms: _45  and  _46
REMARK   21  A    between atoms: _49  and  _51
REMARK   22  A    between atoms: _51  and  _52
REMARK   23  A    between atoms: _51  and  _54
REMARK   24  A    between atoms: _54  and  _55
REMARK   25  A    between atoms: _58  and  _60
REMARK   26  A    between atoms: _60  and  _61
REMARK   27  A    between atoms: _60  and  _63
REMARK   28  A    between atoms: _63  and  _64
REMARK   29  A    between atoms: _67  and  _69
REMARK   30  A    between atoms: _69  and  _70
REMARK   31  A    between atoms: _69  and  _72
REMARK   32  A    between atoms: _72  and  _73
REMARK   33  A    between atoms: _76  and  _78
REMARK   34  A    between atoms: _78  and  _79
REMARK   35  A    between atoms: _78  and  _81
REMARK   36  A    between atoms: _81  and  _82
REMARK   37  A    between atoms: _85  and  _87
REMARK   38  A    between atoms: _87  and  _88
REMARK   39  A    between atoms: _91  and  _93
REMARK   40  A    between atoms: _93  and  _94
REMARK   41  A    between atoms: _93  and  _96
REMARK   42  A    between atoms: _96  and  _97
REMARK   43  A    between atoms: _97  and  _98
REMARK   44  A    between atoms: _103  and  _105
REMARK   45  A    between atoms: _105  and  _106
REMARK   46  A    between atoms: _105  and  _108
REMARK   47  A    between atoms: _108  and  _109
REMARK   48  A    between atoms: _112  and  _114
REMARK   49  A    between atoms: _114  and  _115
REMARK   50  A    between atoms: _118  and  _120
REMARK   51  A    between atoms: _120  and  _121
REMARK   52  A    between atoms: _123  and  _125
REMARK   53  A    between atoms: _125  and  _126
REMARK   54  A    between atoms: _125  and  _128
REMARK   55  A    between atoms: _128  and  _129
REMARK   56  A    between atoms: _129  and  _130
REMARK   57  A    between atoms: _130  and  _131
REMARK   58  A    between atoms: _140  and  _142
REMARK   59  A    between atoms: _142  and  _143
REMARK   60  A    between atoms: _145  and  _147
REMARK   61  A    between atoms: _147  and  _148
REMARK   62  A    between atoms: _147  and  _150
REMARK   63  A    between atoms: _150  and  _151
REMARK   64  A    between atoms: _151  and  _152
REMARK   65  A    between atoms: _152  and  _153
REMARK   66  A    between atoms: _162  and  _164
REMARK   67  A    between atoms: _164  and  _165
REMARK   68  A    between atoms: _164  and  _167
REMARK   69  A    between atoms: _167  and  _168
REMARK   70  A    between atoms: _173  and  _175
REMARK   71  A    between atoms: _175  and  _176
REMARK   72  A    between atoms: _178  and  _180
REMARK   73  A    between atoms: _180  and  _181
REMARK   74  A    between atoms: _180  and  _183
REMARK   75  A    between atoms: _183  and  _184
REMARK   76  A    between atoms: _184  and  _185
REMARK   77  A    between atoms: _185  and  _186
REMARK   78  A    between atoms: _195  and  _197
REMARK   79  A    between atoms: _197  and  _198
REMARK   80  A    between atoms: _200  and  _202
REMARK   81  A    between atoms: _202  and  _203
REMARK   82  A    between atoms: _202  and  _205
REMARK   83  A    between atoms: _205  and  _206
REMARK   84  A    between atoms: _216  and  _218
REMARK   85  A    between atoms: _218  and  _219
REMARK   86  A    between atoms: _222  and  _224
REMARK   87  A    between atoms: _224  and  _225
REMARK   88  A    between atoms: _228  and  _230
REMARK   89  A    between atoms: _230  and  _231
REMARK   90  A    between atoms: _230  and  _233
REMARK   91  A    between atoms: _233  and  _234
REMARK   92  A    between atoms: _237  and  _239
REMARK   93  A    between atoms: _239  and  _240
REMARK   94  A    between atoms: _243  and  _245
REMARK   95  A    between atoms: _245  and  _246
REMARK   96  A    between atoms: _245  and  _248
REMARK   97  A    between atoms: _248  and  _249
REMARK   98  A    between atoms: _249  and  _250
REMARK   99  A    between atoms: _255  and  _257
REMARK  100  A    between atoms: _257  and  _258
REMARK  101  A    between atoms: _257  and  _260
REMARK  102  A    between atoms: _260  and  _261
REMARK  103  A    between atoms: _264  and  _266
REMARK  104  A    between atoms: _266  and  _267
REMARK  105  A    between atoms: _266  and  _269
REMARK  106  A    between atoms: _269  and  _270
REMARK  107  A    between atoms: _273  and  _275
REMARK  108  A    between atoms: _275  and  _276
REMARK  109  A    between atoms: _275  and  _278
REMARK  110  A    between atoms: _278  and  _279
REMARK  111  A    between atoms: _282  and  _284
REMARK  112  A    between atoms: _284  and  _285
REMARK  113  A    between atoms: _284  and  _287
REMARK  114  A    between atoms: _287  and  _288
REMARK  115  A    between atoms: _290  and  _292
REMARK  116  A    between atoms: _292  and  _293
REMARK  117  A    between atoms: _292  and  _295
REMARK  118  A    between atoms: _298  and  _300
REMARK  119  A    between atoms: _300  and  _301
REMARK  120  A    between atoms: _300  and  _303
REMARK  121  A    between atoms: _303  and  _304
REMARK  122  A    between atoms: _304  and  _305
REMARK  123  A    between atoms: _305  and  _306
REMARK  124  A    between atoms: _306  and  _307
REMARK  125  A    between atoms: _311  and  _313
REMARK  126  A    between atoms: _313  and  _314
REMARK  127  A    between atoms: _313  and  _316
REMARK  128  A    between atoms: _316  and  _317
REMARK  129  A    between atoms: _328  and  _329
REMARK  130  A    between atoms: _334  and  _336
REMARK  131  A    between atoms: _336  and  _337
REMARK  132  A    between atoms: _336  and  _339
REMARK  133  A    between atoms: _339  and  _340
REMARK  134  A    between atoms: _345  and  _347
REMARK  135  A    between atoms: _347  and  _348
REMARK  136  A    between atoms: _347  and  _350
REMARK  137  A    between atoms: _350  and  _351
REMARK  138  A    between atoms: _354  and  _356
REMARK  139  A    between atoms: _356  and  _357
REMARK  140  A    between atoms: _356  and  _359
REMARK  141  A    between atoms: _362  and  _364
REMARK  142  A    between atoms: _364  and  _365
REMARK  143  A    between atoms: _367  and  _369
REMARK  144  A    between atoms: _369  and  _370
REMARK  145  A    between atoms: _369  and  _372
REMARK  146  A    between atoms: _372  and  _373
REMARK  147  A    between atoms: _373  and  _374
REMARK  148  A    between atoms: _374  and  _375
REMARK  149  A    between atoms: _375  and  _376
REMARK  150  A    between atoms: _380  and  _382
REMARK  151  A    between atoms: _382  and  _383
REMARK  152  A    between atoms: _382  and  _385
REMARK  153  A    between atoms: _385  and  _386
REMARK  154  A    between atoms: _389  and  _391
REMARK  155  A    between atoms: _391  and  _392
REMARK  156  A    between atoms: _395  and  _397
REMARK  157  A    between atoms: _397  and  _398
REMARK  158  A    between atoms: _400  and  _402
REMARK  159  A    between atoms: _402  and  _403
REMARK  160  A    between atoms: _402  and  _405
REMARK  161  A    between atoms: _405  and  _406
REMARK  162  A    between atoms: _409  and  _411
REMARK  163  A    between atoms: _411  and  _412
REMARK  164  A    between atoms: _411  and  _414
REMARK  165  A    between atoms: _414  and  _415
REMARK  166  A    between atoms: _418  and  _420
REMARK  167  A    between atoms: _420  and  _421
REMARK  168  A    between atoms: _424  and  _426
REMARK  169  A    between atoms: _426  and  _427
REMARK  170  A    between atoms: _426  and  _429
REMARK  171  A    between atoms: _429  and  _430
REMARK  172  A    between atoms: _430  and  _431
REMARK  173  A    between atoms: _434  and  _436
REMARK  174  A    between atoms: _436  and  _437
REMARK  175  A    between atoms: _436  and  _439
REMARK  176  A    between atoms: _442  and  _444
REMARK  177  A    between atoms: _444  and  _445
REMARK  178  A    between atoms: _444  and  _447
REMARK  179  A    between atoms: _447  and  _448
REMARK  180  A    between atoms: _451  and  _453
REMARK  181  A    between atoms: _453  and  _454
REMARK  182  A    between atoms: _456  and  _458
REMARK  183  A    between atoms: _458  and  _459
REMARK  184  A    between atoms: _458  and  _461
REMARK  185  A    between atoms: _464  and  _466
REMARK  186  A    between atoms: _466  and  _467
REMARK  187  A    between atoms: _469  and  _471
REMARK  188  A    between atoms: _471  and  _472
REMARK  189  A    between atoms: _471  and  _474
REMARK  190  A    between atoms: _474  and  _475
REMARK  191  A    between atoms: _478  and  _480
REMARK  192  A    between atoms: _480  and  _481
REMARK  193  A    between atoms: _480  and  _483
REMARK  194  A    between atoms: _483  and  _484
REMARK  195  A    between atoms: _489  and  _491
REMARK  196  A    between atoms: _491  and  _492
REMARK  197  A    between atoms: _491  and  _494
REMARK  198  A    between atoms: _497  and  _499
REMARK  199  A    between atoms: _499  and  _500
REMARK  200  A    between atoms: _499  and  _502
REMARK  201  A    between atoms: _502  and  _503
REMARK  202  A    between atoms: _503  and  _504
REMARK  203  A    between atoms: _509  and  _511
REMARK  204  A    between atoms: _511  and  _512
REMARK  205  A    between atoms: _516  and  _517
REMARK  206  A    between atoms: _522  and  _524
REMARK  207  A    between atoms: _524  and  _525
REMARK  208  A    between atoms: _524  and  _527
REMARK  209  A    between atoms: _527  and  _528
REMARK  210  A    between atoms: _528  and  _529
REMARK  211  A    between atoms: _532  and  _534
REMARK  212  A    between atoms: _534  and  _535
REMARK  213  A    between atoms: _534  and  _537
REMARK  214  A    between atoms: _540  and  _542
REMARK  215  A    between atoms: _542  and  _543
REMARK  216  A    between atoms: _542  and  _545
REMARK  217  A    between atoms: _545  and  _546
REMARK  218  A    between atoms: _550  and  _551
REMARK  219  A    between atoms: _556  and  _558
REMARK  220  A    between atoms: _558  and  _559
REMARK  221  A    between atoms: _558  and  _561
REMARK  222  A    between atoms: _561  and  _562
REMARK  223  A    between atoms: _565  and  _567
REMARK  224  A    between atoms: _567  and  _568
REMARK  225  A    between atoms: _571  and  _573
REMARK  226  A    between atoms: _573  and  _574
REMARK  227  A    between atoms: _573  and  _576
REMARK  228  A    between atoms: _576  and  _577
REMARK  229  A    between atoms: _580  and  _582
REMARK  230  A    between atoms: _582  and  _583
REMARK  231  A    between atoms: _582  and  _585
REMARK  232  A    between atoms: _585  and  _586
REMARK  233  A    between atoms: _588  and  _590
REMARK  234  A    between atoms: _590  and  _591
REMARK  235  A    between atoms: _593  and  _595
REMARK  236  A    between atoms: _595  and  _596
REMARK  237  A    between atoms: _595  and  _598
REMARK  238  A    between atoms: _598  and  _599
REMARK  239  A    between atoms: _602  and  _604
REMARK  240  A    between atoms: _604  and  _605
REMARK  241  A    between atoms: _604  and  _607
REMARK                            x       y       z     vdW  Elec       q    Type
REMARK                         _______ _______ _______ _____ _____    ______ ____
ROOT
ATOM      1  CA  ILE A   2      -4.189 -14.413  23.510  0.00  0.00    +0.148 C 
ENDROOT
BRANCH   1   3
ATOM      2  C   LEU A   1      -3.191 -16.267  22.274  0.00  0.00    +0.238 C 
ATOM      3  N   ILE A   2      -3.494 -15.681  23.431  0.00  0.00    -0.297 N 
ATOM      4  H   ILE A   2      -3.220 -16.154  24.316  0.00  0.00    +0.150 HD
ATOM      5  O   LEU A   1      -3.481 -15.789  21.181  0.00  0.00    -0.274 OA
BRANCH   2   6
ATOM      6  CA  LEU A   1      -2.466 -17.594  22.369  0.00  0.00    +0.145 C 
BRANCH   6   7
ATOM      7  N   LEU A   1      -3.248 -18.604  21.676  0.00  0.00    -0.238 NA
ATOM      8  H   LEU A   1      -3.535 -18.431  20.691  0.00  0.00    +0.142 HD
ENDBRANCH   6   7
BRANCH   6   9
ATOM      9  CB  LEU A   1      -1.059 -17.479  21.777  0.00  0.00    +0.026 C 
BRANCH   9  10
ATOM     10  CG  LEU A   1      -0.239 -16.305  22.318  0.00  0.00    +0.002 C 
ATOM     11  CD2 LEU A   1       0.065 -16.458  23.815  0.00  0.00    +0.000 C 
ATOM     12  CD1 LEU A   1       1.054 -16.159  21.516  0.00  0.00    +0.000 C 
ENDBRANCH   9  10
ENDBRANCH   6   9
ENDBRANCH   2   6
ENDBRANCH   1   3
BRANCH   1  13
ATOM     13  C   ILE A   2      -3.274 -13.413  24.186  0.00  0.00    +0.241 C 
ATOM     14  O   ILE A   2      -2.652 -13.754  25.186  0.00  0.00    -0.273 OA
ATOM     15  N   ALA A   3      -3.171 -12.208  23.633  0.00  0.00    -0.298 N 
ATOM     16  H   ALA A   3      -3.665 -12.016  22.738  0.00  0.00    +0.150 HD
BRANCH  15  17
ATOM     17  CA  ALA A   3      -2.378 -11.145  24.255  0.00  0.00    +0.137 C 
ATOM     18  CB  ALA A   3      -1.311 -10.633  23.296  0.00  0.00    +0.030 C 
BRANCH  17  19
ATOM     19  C   ALA A   3      -3.271  -9.993  24.699  0.00  0.00    +0.227 C 
ATOM     20  O   ALA A   3      -4.104  -9.519  23.929  0.00  0.00    -0.286 OA
ENDBRANCH  17  19
ENDBRANCH  15  17
ENDBRANCH   1  13
BRANCH   1  21
ATOM     21  CB  ILE A   2      -5.501 -14.544  24.305  0.00  0.00    +0.027 C 
ATOM     22  CG2 ILE A   2      -6.293 -13.252  24.231  0.00  0.00    +0.002 C 
BRANCH  21  23
ATOM     23  CG1 ILE A   2      -6.319 -15.698  23.736  0.00  0.00    +0.002 C 
ATOM     24  CD1 ILE A   2      -7.626 -15.932  24.450  0.00  0.00    +0.000 C 
ENDBRANCH  21  23
ENDBRANCH   1  21
TORSDOF 10
REMARK  Name = ../refined-set-2016/4xu1/4xu1_pocket.pdb
REMARK  241 active torsions:
REMARK  status: ('A' for Active; 'I' for Inactive)
REMARK    1  A    between atoms: _1  and  _3
REMARK    2  A    between atoms: _3  and  _4
REMARK    3  A    between atoms: _3  and  _6
REMARK    4  A    between atoms: _6  and  _7
REMARK    5  A    between atoms: _10  and  _12
REMARK    6  A    between atoms: _12  and  _13
REMARK    7  A    between atoms: _15  and  _17
REMARK    8  A    between atoms: _17  and  _18
REMARK    9  A    between atoms: _17  and  _20
REMARK   10  A    between atoms: _20  and  _21
REMARK   11  A    between atoms: _23  and  _25
REMARK   12  A    between atoms: _25  and  _26
REMARK   13  A    between atoms: _25  and  _28
REMARK   14  A    between atoms: _28  and  _29
REMARK   15  A    between atoms: _32  and  _34
REMARK   16  A    between atoms: _34  and  _35
REMARK   17  A    between atoms: _34  and  _37
REMARK   18  A    between atoms: _37  and  _38
REMARK   19  A    between atoms: _43  and  _45
REMARK   20  A    between atoms: _45  and  _46
REMARK   21  A    between atoms: _49  and  _51
REMARK   22  A    between atoms: _51  and  _52
REMARK   23  A    between atoms: _51  and  _54
REMARK   24  A    between atoms: _54  and  _55
REMARK   25  A    between atoms: _58  and  _60
REMARK   26  A    between atoms: _60  and  _61
REMARK   27  A    between atoms: _60  and  _63
REMARK   28  A    between atoms: _63  and  _64
REMARK   29  A    between atoms: _67  and  _69
REMARK   30  A    between atoms: _69  and  _70
REMARK   31  A    between atoms: _69  and  _72
REMARK   32  A    between atoms: _72  and  _73
REMARK   33  A    between atoms: _76  and  _78
REMARK   34  A    between atoms: _78  and  _79
REMARK   35  A    between atoms: _78  and  _81
REMARK   36  A    between atoms: _81  and  _82
REMARK   37  A    between atoms: _85  and  _87
REMARK   38  A    between atoms: _87  and  _88
REMARK   39  A    between atoms: _91  and  _93
REMARK   40  A    between atoms: _93  and  _94
REMARK   41  A    between atoms: _93  and  _96
REMARK   42  A    between atoms: _96  and  _97
REMARK   43  A    between atoms: _97  and  _98
REMARK   44  A    between atoms: _103  and  _105
REMARK   45  A    between atoms: _105  and  _106
REMARK   46  A    between atoms: _105  and  _108
REMARK   47  A    between atoms: _108  and  _109
REMARK   48  A    between atoms: _112  and  _114
REMARK   49  A    between atoms: _114  and  _115
REMARK   50  A    between atoms: _118  and  _120
REMARK   51  A    between atoms: _120  and  _121
REMARK   52  A    between atoms: _123  and  _125
REMARK   53  A    between atoms: _125  and  _126
REMARK   54  A    between atoms: _125  and  _128
REMARK   55  A    between atoms: _128  and  _129
REMARK   56  A    between atoms: _129  and  _130
REMARK   57  A    between atoms: _130  and  _131
REMARK   58  A    between atoms: _140  and  _142
REMARK   59  A    between atoms: _142  and  _143
REMARK   60  A    between atoms: _145  and  _147
REMARK   61  A    between atoms: _147  and  _148
REMARK   62  A    between atoms: _147  and  _150
REMARK   63  A    between atoms: _150  and  _151
REMARK   64  A    between atoms: _151  and  _152
REMARK   65  A    between atoms: _152  and  _153
REMARK   66  A    between atoms: _162  and  _164
REMARK   67  A    between atoms: _164  and  _165
REMARK   68  A    between atoms: _164  and  _167
REMARK   69  A    between atoms: _167  and  _168
REMARK   70  A    between atoms: _173  and  _175
REMARK   71  A    between atoms: _175  and  _176
REMARK   72  A    between atoms: _178  and  _180
REMARK   73  A    between atoms: _180  and  _181
REMARK   74  A    between atoms: _180  and  _183
REMARK   75  A    between atoms: _183  and  _184
REMARK   76  A    between atoms: _184  and  _185
REMARK   77  A    between atoms: _185  and  _186
REMARK   78  A    between atoms: _195  and  _197
REMARK   79  A    between atoms: _197  and  _198
REMARK   80  A    between atoms: _200  and  _202
REMARK   81  A    between atoms: _202  and  _203
REMARK   82  A    between atoms: _202  and  _205
REMARK   83  A    between atoms: _205  and  _206
REMARK   84  A    between atoms: _216  and  _218
REMARK   85  A    between atoms: _218  and  _219
REMARK   86  A    between atoms: _222  and  _224
REMARK   87  A    between atoms: _224  and  _225
REMARK   88  A    between atoms: _228  and  _230
REMARK   89  A    between atoms: _230  and  _231
REMARK   90  A    between atoms: _230  and  _233
REMARK   91  A    between atoms: _233  and  _234
REMARK   92  A    between atoms: _237  and  _239
REMARK   93  A    between atoms: _239  and  _240
REMARK   94  A    between atoms: _243  and  _245
REMARK   95  A    between atoms: _245  and  _246
REMARK   96  A    between atoms: _245  and  _248
REMARK   97  A    between atoms: _248  and  _249
REMARK   98  A    between atoms: _249  and  _250
REMARK   99  A    between atoms: _255  and  _257
REMARK  100  A    between atoms: _257  and  _258
REMARK  101  A    between atoms: _257  and  _260
REMARK  102  A    between atoms: _260  and  _261
REMARK  103  A    between atoms: _264  and  _266
REMARK  104  A    between atoms: _266  and  _267
REMARK  105  A    between atoms: _266  and  _269
REMARK  106  A    between atoms: _269  and  _270
REMARK  107  A    between atoms: _273  and  _275
REMARK  108  A    between atoms: _275  and  _276
REMARK  109  A    between atoms: _275  and  _278
REMARK  110  A    between atoms: _278  and  _279
REMARK  111  A    between atoms: _282  and  _284
REMARK  112  A    between atoms: _284  and  _285
REMARK  113  A    between atoms: _284  and  _287
REMARK  114  A    between atoms: _287  and  _288
REMARK  115  A    between atoms: _290  and  _292
REMARK  116  A    between atoms: _292  and  _293
REMARK  117  A    between atoms: _292  and  _295
REMARK  118  A    between atoms: _298  and  _300
REMARK  119  A    between atoms: _300  and  _301
REMARK  120  A    between atoms: _300  and  _303
REMARK  121  A    between atoms: _303  and  _304
REMARK  122  A    between atoms: _304  and  _305
REMARK  123  A    between atoms: _305  and  _306
REMARK  124  A    between atoms: _306  and  _307
REMARK  125  A    between atoms: _311  and  _313
REMARK  126  A    between atoms: _313  and  _314
REMARK  127  A    between atoms: _313  and  _316
REMARK  128  A    between atoms: _316  and  _317
REMARK  129  A    between atoms: _328  and  _329
REMARK  130  A    between atoms: _334  and  _336
REMARK  131  A    between atoms: _336  and  _337
REMARK  132  A    between atoms: _336  and  _339
REMARK  133  A    between atoms: _339  and  _340
REMARK  134  A    between atoms: _345  and  _347
REMARK  135  A    between atoms: _347  and  _348
REMARK  136  A    between atoms: _347  and  _350
REMARK  137  A    between atoms: _350  and  _351
REMARK  138  A    between atoms: _354  and  _356
REMARK  139  A    between atoms: _356  and  _357
REMARK  140  A    between atoms: _356  and  _359
REMARK  141  A    between atoms: _362  and  _364
REMARK  142  A    between atoms: _364  and  _365
REMARK  143  A    between atoms: _367  and  _369
REMARK  144  A    between atoms: _369  and  _370
REMARK  145  A    between atoms: _369  and  _372
REMARK  146  A    between atoms: _372  and  _373
REMARK  147  A    between atoms: _373  and  _374
REMARK  148  A    between atoms: _374  and  _375
REMARK  149  A    between atoms: _375  and  _376
REMARK  150  A    between atoms: _380  and  _382
REMARK  151  A    between atoms: _382  and  _383
REMARK  152  A    between atoms: _382  and  _385
REMARK  153  A    between atoms: _385  and  _386
REMARK  154  A    between atoms: _389  and  _391
REMARK  155  A    between atoms: _391  and  _392
REMARK  156  A    between atoms: _395  and  _397
REMARK  157  A    between atoms: _397  and  _398
REMARK  158  A    between atoms: _400  and  _402
REMARK  159  A    between atoms: _402  and  _403
REMARK  160  A    between atoms: _402  and  _405
REMARK  161  A    between atoms: _405  and  _406
REMARK  162  A    between atoms: _409  and  _411
REMARK  163  A    between atoms: _411  and  _412
REMARK  164  A    between atoms: _411  and  _414
REMARK  165  A    between atoms: _414  and  _415
REMARK  166  A    between atoms: _418  and  _420
REMARK  167  A    between atoms: _420  and  _421
REMARK  168  A    between atoms: _424  and  _426
REMARK  169  A    between atoms: _426  and  _427
REMARK  170  A    between atoms: _426  and  _429
REMARK  171  A    between atoms: _429  and  _430
REMARK  172  A    between atoms: _430  and  _431
REMARK  173  A    between atoms: _434  and  _436
REMARK  174  A    between atoms: _436  and  _437
REMARK  175  A    between atoms: _436  and  _439
REMARK  176  A    between atoms: _442  and  _444
REMARK  177  A    between atoms: _444  and  _445
REMARK  178  A    between atoms: _444  and  _447
REMARK  179  A    between atoms: _447  and  _448
REMARK  180  A    between atoms: _451  and  _453
REMARK  181  A    between atoms: _453  and  _454
REMARK  182  A    between atoms: _456  and  _458
REMARK  183  A    between atoms: _458  and  _459
REMARK  184  A    between atoms: _458  and  _461
REMARK  185  A    between atoms: _464  and  _466
REMARK  186  A    between atoms: _466  and  _467
REMARK  187  A    between atoms: _469  and  _471
REMARK  188  A    between atoms: _471  and  _472
REMARK  189  A    between atoms: _471  and  _474
REMARK  190  A    between atoms: _474  and  _475
REMARK  191  A    between atoms: _478  and  _480
REMARK  192  A    between atoms: _480  and  _481
REMARK  193  A    between atoms: _480  and  _483
REMARK  194  A    between atoms: _483  and  _484
REMARK  195  A    between atoms: _489  and  _491
REMARK  196  A    between atoms: _491  and  _492
REMARK  197  A    between atoms: _491  and  _494
REMARK  198  A    between atoms: _497  and  _499
REMARK  199  A    between atoms: _499  and  _500
REMARK  200  A    between atoms: _499  and  _502
REMARK  201  A    between atoms: _502  and  _503
REMARK  202  A    between atoms: _503  and  _504
REMARK  203  A    between atoms: _509  and  _511
REMARK  204  A    between atoms: _511  and  _512
REMARK  205  A    between atoms: _516  and  _517
REMARK  206  A    between atoms: _522  and  _524
REMARK  207  A    between atoms: _524  and  _525
REMARK  208  A    between atoms: _524  and  _527
REMARK  209  A    between atoms: _527  and  _528
REMARK  210  A    between atoms: _528  and  _529
REMARK  211  A    between atoms: _532  and  _534
REMARK  212  A    between atoms: _534  and  _535
REMARK  213  A    between atoms: _534  and  _537
REMARK  214  A    between atoms: _540  and  _542
REMARK  215  A    between atoms: _542  and  _543
REMARK  216  A    between atoms: _542  and  _545
REMARK  217  A    between atoms: _545  and  _546
REMARK  218  A    between atoms: _550  and  _551
REMARK  219  A    between atoms: _556  and  _558
REMARK  220  A    between atoms: _558  and  _559
REMARK  221  A    between atoms: _558  and  _561
REMARK  222  A    between atoms: _561  and  _562
REMARK  223  A    between atoms: _565  and  _567
REMARK  224  A    between atoms: _567  and  _568
REMARK  225  A    between atoms: _571  and  _573
REMARK  226  A    between atoms: _573  and  _574
REMARK  227  A    between atoms: _573  and  _576
REMARK  228  A    between atoms: _576  and  _577
REMARK  229  A    between atoms: _580  and  _582
REMARK  230  A    between atoms: _582  and  _583
REMARK  231  A    between atoms: _582  and  _585
REMARK  232  A    between atoms: _585  and  _586
REMARK  233  A    between atoms: _588  and  _590
REMARK  234  A    between atoms: _590  and  _591
REMARK  235  A    between atoms: _593  and  _595
REMARK  236  A    between atoms: _595  and  _596
REMARK  237  A    between atoms: _595  and  _598
REMARK  238  A    between atoms: _598  and  _599
REMARK  239  A    between atoms: _602  and  _604
REMARK  240  A    between atoms: _604  and  _605
REMARK  241  A    between atoms: _604  and  _607
REMARK                            x       y       z     vdW  Elec       q    Type
REMARK                         _______ _______ _______ _____ _____    ______ ____
ROOT
ATOM      1  C   ARG A   7      -0.334  -7.677   4.809  0.00  0.00    +0.241 C 
ATOM      2  O   ARG A   7      -0.255  -6.472   5.020  0.00  0.00    -0.273 OA
ATOM      3  N   HIS A   8       0.408  -8.325   3.915  0.00  0.00    -0.297 N 
ATOM      4  H   HIS A   8       0.381  -9.365   3.914  0.00  0.00    +0.150 HD
ENDROOT
BRANCH   3   5
ATOM      5  CA  HIS A   8       1.260  -7.654   2.934  0.00  0.00    +0.155 C 
BRANCH   5   6
ATOM      6  C   HIS A   8       2.270  -6.719   3.581  0.00  0.00    +0.241 C 
ATOM      7  N   GLY A   9       2.789  -7.136   4.731  0.00  0.00    -0.295 N 
ATOM      8  H   GLY A   9       2.445  -8.024   5.150  0.00  0.00    +0.150 HD
ATOM      9  O   HIS A   8       2.570  -5.648   3.055  0.00  0.00    -0.273 OA
BRANCH   7  10
ATOM     10  CA  GLY A   9       3.824  -6.384   5.418  0.00  0.00    +0.176 C 
BRANCH  10  11
ATOM     11  C   GLY A   9       3.353  -5.142   6.143  0.00  0.00    +0.243 C 
ATOM     12  O   GLY A   9       4.172  -4.330   6.563  0.00  0.00    -0.273 OA
ATOM     13  N   ARG A  10       2.043  -4.975   6.299  0.00  0.00    -0.297 N 
ATOM     14  H   ARG A  10       1.379  -5.660   5.884  0.00  0.00    +0.150 HD
BRANCH  13  15
ATOM     15  CA  ARG A  10       1.536  -3.831   7.052  0.00  0.00    +0.149 C 
BRANCH  15  16
ATOM     16  C   ARG A  10       1.519  -4.102   8.538  0.00  0.00    +0.241 C 
ATOM     17  N   GLY A  11       1.090  -3.100   9.294  0.00  0.00    -0.295 N 
ATOM     18  H   GLY A  11       0.805  -2.207   8.844  0.00  0.00    +0.150 HD
ATOM     19  O   ARG A  10       1.875  -5.196   8.986  0.00  0.00    -0.273 OA
BRANCH  17  20
ATOM     20  CA  GLY A  11       1.011  -3.226  10.730  0.00  0.00    +0.176 C 
BRANCH  20  21
ATOM     21  C   GLY A  11      -0.403  -3.447  11.230  0.00  0.00    +0.243 C 
ATOM     22  N   TRP A  12      -0.496  -3.716  12.526  0.00  0.00    -0.297 N 
ATOM     23  H   TRP A  12       0.381  -3.910  13.050  0.00  0.00    +0.150 HD
ATOM     24  O   GLY A  11      -1.372  -3.395  10.474  0.00  0.00    -0.273 OA
BRANCH  22  25
ATOM     25  CA  TRP A  12      -1.749  -3.755  13.253  0.00  0.00    +0.153 C 
BRANCH  25  26
ATOM     26  C   TRP A  12      -1.498  -3.072  14.579  0.00  0.00    +0.241 C 
ATOM     27  O   TRP A  12      -0.545  -3.432  15.270  0.00  0.00    -0.273 OA
ATOM     28  N   ALA A  13      -2.351  -2.123  14.940  0.00  0.00    -0.297 N 
ATOM     29  H   ALA A  13      -3.175  -1.929  14.336  0.00  0.00    +0.150 HD
BRANCH  28  30
ATOM     30  CA  ALA A  13      -2.168  -1.342  16.161  0.00  0.00    +0.149 C 
ATOM     31  CB  ALA A  13      -2.268   0.146  15.854  0.00  0.00    +0.031 C 
BRANCH  30  32
ATOM     32  C   ALA A  13      -3.178  -1.716  17.234  0.00  0.00    +0.241 C 
ATOM     33  N   ALA A  14      -2.786  -1.522  18.485  0.00  0.00    -0.297 N 
ATOM     34  H   ALA A  14      -1.842  -1.123  18.661  0.00  0.00    +0.150 HD
ATOM     35  O   ALA A  13      -4.290  -2.149  16.937  0.00  0.00    -0.273 OA
BRANCH  33  36
ATOM     36  CA  ALA A  14      -3.635  -1.850  19.618  0.00  0.00    +0.149 C 
ATOM     37  CB  ALA A  14      -3.522  -3.341  19.954  0.00  0.00    +0.031 C 
BRANCH  36  38
ATOM     38  C   ALA A  14      -3.264  -1.029  20.831  0.00  0.00    +0.241 C 
ATOM     39  N   THR A  15      -4.222  -0.846  21.728  0.00  0.00    -0.296 N 
ATOM     40  H   THR A  15      -5.218  -0.996  21.469  0.00  0.00    +0.150 HD
ATOM     41  O   ALA A  14      -2.128  -0.564  20.954  0.00  0.00    -0.273 OA
BRANCH  39  42
ATOM     42  CA  THR A  15      -3.868  -0.434  23.078  0.00  0.00    +0.164 C 
BRANCH  42  43
ATOM     43  C   THR A  15      -4.309  -1.534  24.033  0.00  0.00    +0.229 C 
ATOM     44  O   THR A  15      -5.170  -2.368  23.694  0.00  0.00    -0.286 OA
ENDBRANCH  42  43
BRANCH  42  45
ATOM     45  CB  THR A  15      -4.482   0.920  23.461  0.00  0.00    +0.136 C 
ATOM     46  CG2 THR A  15      -4.015   2.011  22.494  0.00  0.00    +0.034 C 
BRANCH  45  47
ATOM     47  OG1 THR A  15      -5.908   0.841  23.427  0.00  0.00    -0.382 OA
ATOM     48  HG1 THR A  15      -6.292   1.719  23.675  0.00  0.00    +0.210 HD
ENDBRANCH  45  47
ENDBRANCH  42  45
ENDBRANCH  39  42
ENDBRANCH  36  38
ENDBRANCH  33  36
ENDBRANCH  30  32
ENDBRANCH  28  30
ENDBRANCH  25  26
BRANCH  25  49
ATOM     49  CB  TRP A  12      -2.224  -5.191  13.503  0.00  0.00    +0.057 C 
BRANCH  49  50
ATOM     50  CG  TRP A  12      -3.602  -5.259  14.091  0.00  0.00    -0.002 A 
ATOM     51  CD1 TRP A  12      -3.943  -5.522  15.387  0.00  0.00    +0.068 A 
ATOM     52  NE1 TRP A  12      -5.308  -5.486  15.533  0.00  0.00    -0.352 N 
ATOM     53  HE1 TRP A  12      -5.827  -5.651  16.419  0.00  0.00    +0.166 HD
ATOM     54  CE2 TRP A  12      -5.874  -5.197  14.318  0.00  0.00    +0.056 A 
ATOM     55  CZ2 TRP A  12      -7.216  -5.067  13.957  0.00  0.00    +0.017 A 
ATOM     56  CH2 TRP A  12      -7.491  -4.749  12.653  0.00  0.00    +0.001 A 
ATOM     57  CZ3 TRP A  12      -6.472  -4.597  11.703  0.00  0.00    +0.000 A 
ATOM     58  CE3 TRP A  12      -5.138  -4.722  12.062  0.00  0.00    +0.001 A 
ATOM     59  CD2 TRP A  12      -4.827  -5.038  13.389  0.00  0.00    +0.013 A 
ENDBRANCH  49  50
ENDBRANCH  25  49
ENDBRANCH  22  25
ENDBRANCH  20  21
ENDBRANCH  17  20
ENDBRANCH  15  16
BRANCH  15  60
ATOM     60  CB  ARG A  10       0.131  -3.451   6.616  0.00  0.00    +0.033 C 
BRANCH  60  61
ATOM     61  CG  ARG A  10       0.031  -2.992   5.203  0.00  0.00    +0.045 C 
BRANCH  61  62
ATOM     62  CD  ARG A  10      -1.226  -3.564   4.631  0.00  0.00    +0.174 C 
BRANCH  62  63
ATOM     63  NE  ARG A  10      -1.356  -3.228   3.235  0.00  0.00    -0.265 N 
ATOM     64  HE  ARG A  10      -0.700  -2.527   2.836  0.00  0.00    +0.259 HD
ATOM     65  CZ  ARG A  10      -2.260  -3.760   2.435  0.00  0.00    +0.342 C 
ATOM     66  NH2 ARG A  10      -3.107  -4.671   2.898  0.00  0.00    -0.292 N 
ATOM     67 HH21 ARG A  10      -3.059  -4.967   3.894  0.00  0.00    +0.255 HD
ATOM     68 HH22 ARG A  10      -3.819  -5.089   2.265  0.00  0.00    +0.255 HD
ATOM     69  NH1 ARG A  10      -2.299  -3.385   1.171  0.00  0.00    -0.292 N 
ATOM     70 HH11 ARG A  10      -1.623  -2.679   0.817  0.00  0.00    +0.255 HD
ATOM     71 HH12 ARG A  10      -3.006  -3.796   0.528  0.00  0.00    +0.255 HD
ENDBRANCH  62  63
ENDBRANCH  61  62
ENDBRANCH  60  61
ENDBRANCH  15  60
ENDBRANCH  13  15
ENDBRANCH  10  11
ENDBRANCH   7  10
ENDBRANCH   5   6
BRANCH   5  72
ATOM     72  CB  HIS A   8       0.395  -6.893   1.931  0.00  0.00    +0.076 C 
BRANCH  72  73
ATOM     73  CG  HIS A   8      -0.661  -7.747   1.298  0.00  0.00    +0.082 A 
ATOM     74  CD2 HIS A   8      -2.011  -7.684   1.356  0.00  0.00    +0.115 A 
ATOM     75  NE2 HIS A   8      -2.499  -8.728   0.606  0.00  0.00    -0.221 NA
ATOM     76  CE1 HIS A   8      -1.480  -9.413   0.114  0.00  0.00    +0.199 A 
ATOM     77  ND1 HIS A   8      -0.357  -8.840   0.515  0.00  0.00    -0.227 NA
ENDBRANCH  72  73
ENDBRANCH   5  72
ENDBRANCH   3   5
BRANCH   1  78
ATOM     78  CA  ARG A   7      -1.312  -8.534   5.599  0.00  0.00    +0.149 C 
BRANCH  78  81
ATOM     79  C   GLY A   6      -0.733  -7.753   7.802  0.00  0.00    +0.243 C 
ATOM     80  O   GLY A   6       0.405  -8.215   7.699  0.00  0.00    -0.273 OA
ATOM     81  N   ARG A   7      -1.651  -7.910   6.864  0.00  0.00    -0.297 N 
ATOM     82  H   ARG A   7      -2.624  -7.584   7.034  0.00  0.00    +0.150 HD
BRANCH  79  83
ATOM     83  CA  GLY A   6      -1.172  -6.988   9.032  0.00  0.00    +0.176 C 
BRANCH  83  86
ATOM     84  C   ARG A   5       0.044  -7.556  11.041  0.00  0.00    +0.241 C 
ATOM     85  O   ARG A   5      -0.863  -8.258  11.461  0.00  0.00    -0.273 OA
ATOM     86  N   GLY A   6      -0.049  -6.839   9.930  0.00  0.00    -0.295 N 
ATOM     87  H   GLY A   6       0.701  -6.156   9.700  0.00  0.00    +0.150 HD
BRANCH  84  88
ATOM     88  CA  ARG A   5       1.345  -7.405  11.807  0.00  0.00    +0.149 C 
BRANCH  88  91
ATOM     89  C   GLY A   4       1.538  -6.235  13.901  0.00  0.00    +0.243 C 
ATOM     90  O   GLY A   4       2.034  -5.248  13.344  0.00  0.00    -0.273 OA
ATOM     91  N   ARG A   5       1.138  -7.307  13.234  0.00  0.00    -0.297 N 
ATOM     92  H   ARG A   5       0.671  -8.085  13.742  0.00  0.00    +0.150 HD
BRANCH  89  93
ATOM     93  CA  GLY A   4       1.341  -6.286  15.399  0.00  0.00    +0.176 C 
BRANCH  93  95
ATOM     94  C   ALA A   3       3.629  -5.782  16.076  0.00  0.00    +0.241 C 
ATOM     95  N   GLY A   4       2.329  -5.500  16.116  0.00  0.00    -0.295 N 
ATOM     96  H   GLY A   4       2.009  -4.688  16.681  0.00  0.00    +0.150 HD
ATOM     97  O   ALA A   3       4.102  -6.686  15.400  0.00  0.00    -0.273 OA
BRANCH  94  98
ATOM     98  CA  ALA A   3       4.514  -4.916  16.973  0.00  0.00    +0.149 C 
ATOM     99  CB  ALA A   3       5.936  -5.475  17.052  0.00  0.00    +0.031 C 
BRANCH  98 102
ATOM    100  C   THR A   2       3.803  -3.698  18.964  0.00  0.00    +0.243 C 
ATOM    101  O   THR A   2       4.224  -2.611  18.523  0.00  0.00    -0.273 OA
ATOM    102  N   ALA A   3       3.918  -4.841  18.296  0.00  0.00    -0.297 N 
ATOM    103  H   ALA A   3       3.568  -5.715  18.737  0.00  0.00    +0.150 HD
BRANCH 100 104
ATOM    104  CA  THR A   2       3.149  -3.769  20.346  0.00  0.00    +0.176 C 
BRANCH 104 106
ATOM    105  C   GLN A   1       1.074  -5.027  20.647  0.00  0.00    +0.238 C 
ATOM    106  N   THR A   2       2.406  -4.997  20.648  0.00  0.00    -0.295 N 
ATOM    107  H   THR A   2       2.932  -5.866  20.869  0.00  0.00    +0.150 HD
ATOM    108  O   GLN A   1       0.374  -4.130  20.172  0.00  0.00    -0.274 OA
BRANCH 105 109
ATOM    109  CA  GLN A   1       0.422  -6.246  21.271  0.00  0.00    +0.145 C 
BRANCH 109 110
ATOM    110  N   GLN A   1      -0.431  -5.816  22.364  0.00  0.00    -0.238 NA
ATOM    111  H   GLN A   1      -0.982  -4.942  22.244  0.00  0.00    +0.142 HD
ENDBRANCH 109 110
BRANCH 109 112
ATOM    112  CB  GLN A   1      -0.395  -7.021  20.233  0.00  0.00    +0.036 C 
BRANCH 112 113
ATOM    113  CG  GLN A   1       0.426  -7.626  19.123  0.00  0.00    +0.087 C 
BRANCH 113 114
ATOM    114  CD  GLN A   1      -0.429  -8.434  18.160  0.00  0.00    +0.219 C 
ATOM    115  OE1 GLN A   1      -0.372  -9.665  18.135  0.00  0.00    -0.275 OA
ATOM    116  NE2 GLN A   1      -1.226  -7.740  17.360  0.00  0.00    -0.329 N 
ATOM    117 HE21 GLN A   1      -1.242  -6.702  17.415  0.00  0.00    +0.145 HD
ATOM    118 HE22 GLN A   1      -1.835  -8.234  16.677  0.00  0.00    +0.145 HD
ENDBRANCH 113 114
ENDBRANCH 112 113
ENDBRANCH 109 112
ENDBRANCH 105 109
ENDBRANCH 104 106
BRANCH 104 119
ATOM    119  CB  THR A   2       4.260  -3.561  21.406  0.00  0.00    +0.137 C 
ATOM    120  CG2 THR A   2       3.650  -3.430  22.800  0.00  0.00    +0.034 C 
BRANCH 119 121
ATOM    121  OG1 THR A   2       5.156  -4.679  21.371  0.00  0.00    -0.382 OA
ATOM    122  HG1 THR A   2       5.868  -4.551  22.047  0.00  0.00    +0.210 HD
ENDBRANCH 119 121
ENDBRANCH 104 119
ENDBRANCH 100 104
ENDBRANCH  98 102
ENDBRANCH  94  98
ENDBRANCH  93  95
ENDBRANCH  89  93
ENDBRANCH  88  91
BRANCH  88 123
ATOM    123  CB  ARG A   5       2.308  -8.552  11.522  0.00  0.00    +0.033 C 
BRANCH 123 124
ATOM    124  CG  ARG A   5       3.676  -8.268  12.173  0.00  0.00    +0.045 C 
BRANCH 124 125
ATOM    125  CD  ARG A   5       4.776  -9.211  11.729  0.00  0.00    +0.174 C 
BRANCH 125 126
ATOM    126  NE  ARG A   5       4.607 -10.538  12.307  0.00  0.00    -0.265 N 
ATOM    127  HE  ARG A   5       4.997 -10.720  13.254  0.00  0.00    +0.259 HD
ATOM    128  CZ  ARG A   5       3.980 -11.522  11.683  0.00  0.00    +0.342 C 
ATOM    129  NH2 ARG A   5       3.857 -12.709  12.256  0.00  0.00    -0.292 N 
ATOM    130 HH21 ARG A   5       4.255 -12.873  13.203  0.00  0.00    +0.255 HD
ATOM    131 HH22 ARG A   5       3.363 -13.478  11.759  0.00  0.00    +0.255 HD
ATOM    132  NH1 ARG A   5       3.487 -11.314  10.473  0.00  0.00    -0.292 N 
ATOM    133 HH11 ARG A   5       3.594 -10.384  10.021  0.00  0.00    +0.255 HD
ATOM    134 HH12 ARG A   5       2.992 -12.081   9.974  0.00  0.00    +0.255 HD
ENDBRANCH 125 126
ENDBRANCH 124 125
ENDBRANCH 123 124
ENDBRANCH  88 123
ENDBRANCH  84  88
ENDBRANCH  83  86
ENDBRANCH  79  83
ENDBRANCH  78  81
BRANCH  78 135
ATOM    135  CB  ARG A   7      -2.572  -8.767   4.779  0.00  0.00    +0.033 C 
BRANCH 135 136
ATOM    136  CG  ARG A   7      -3.557  -9.687   5.440  0.00  0.00    +0.045 C 
BRANCH 136 137
ATOM    137  CD  ARG A   7      -4.653 -10.073   4.456  0.00  0.00    +0.174 C 
BRANCH 137 138
ATOM    138  NE  ARG A   7      -5.583  -8.983   4.154  0.00  0.00    -0.265 N 
ATOM    139  CZ  ARG A   7      -6.595  -8.634   4.945  0.00  0.00    +0.342 C 
ATOM    140  NH2 ARG A   7      -6.770  -9.252   6.106  0.00  0.00    -0.292 N 
ATOM    141 HH21 ARG A   7      -7.560  -8.981   6.726  0.00  0.00    +0.255 HD
ATOM    142 HH22 ARG A   7      -6.117 -10.008   6.397  0.00  0.00    +0.255 HD
ATOM    143  NH1 ARG A   7      -7.416  -7.646   4.597  0.00  0.00    -0.292 N 
ATOM    144 HH11 ARG A   7      -8.204  -7.380   5.222  0.00  0.00    +0.255 HD
ATOM    145 HH12 ARG A   7      -7.270  -7.140   3.701  0.00  0.00    +0.255 HD
ATOM    146  HE  ARG A   7      -5.445  -8.451   3.271  0.00  0.00    +0.259 HD
ENDBRANCH 137 138
ENDBRANCH 136 137
ENDBRANCH 135 136
ENDBRANCH  78 135
ENDBRANCH   1  78
TORSDOF 53
REMARK  Name = ../refined-set-2016/4xu1/4xu1_pocket.pdb
REMARK  241 active torsions:
REMARK  status: ('A' for Active; 'I' for Inactive)
REMARK    1  A    between atoms: _1  and  _3
REMARK    2  A    between atoms: _3  and  _4
REMARK    3  A    between atoms: _3  and  _6
REMARK    4  A    between atoms: _6  and  _7
REMARK    5  A    between atoms: _10  and  _12
REMARK    6  A    between atoms: _12  and  _13
REMARK    7  A    between atoms: _15  and  _17
REMARK    8  A    between atoms: _17  and  _18
REMARK    9  A    between atoms: _17  and  _20
REMARK   10  A    between atoms: _20  and  _21
REMARK   11  A    between atoms: _23  and  _25
REMARK   12  A    between atoms: _25  and  _26
REMARK   13  A    between atoms: _25  and  _28
REMARK   14  A    between atoms: _28  and  _29
REMARK   15  A    between atoms: _32  and  _34
REMARK   16  A    between atoms: _34  and  _35
REMARK   17  A    between atoms: _34  and  _37
REMARK   18  A    between atoms: _37  and  _38
REMARK   19  A    between atoms: _43  and  _45
REMARK   20  A    between atoms: _45  and  _46
REMARK   21  A    between atoms: _49  and  _51
REMARK   22  A    between atoms: _51  and  _52
REMARK   23  A    between atoms: _51  and  _54
REMARK   24  A    between atoms: _54  and  _55
REMARK   25  A    between atoms: _58  and  _60
REMARK   26  A    between atoms: _60  and  _61
REMARK   27  A    between atoms: _60  and  _63
REMARK   28  A    between atoms: _63  and  _64
REMARK   29  A    between atoms: _67  and  _69
REMARK   30  A    between atoms: _69  and  _70
REMARK   31  A    between atoms: _69  and  _72
REMARK   32  A    between atoms: _72  and  _73
REMARK   33  A    between atoms: _76  and  _78
REMARK   34  A    between atoms: _78  and  _79
REMARK   35  A    between atoms: _78  and  _81
REMARK   36  A    between atoms: _81  and  _82
REMARK   37  A    between atoms: _85  and  _87
REMARK   38  A    between atoms: _87  and  _88
REMARK   39  A    between atoms: _91  and  _93
REMARK   40  A    between atoms: _93  and  _94
REMARK   41  A    between atoms: _93  and  _96
REMARK   42  A    between atoms: _96  and  _97
REMARK   43  A    between atoms: _97  and  _98
REMARK   44  A    between atoms: _103  and  _105
REMARK   45  A    between atoms: _105  and  _106
REMARK   46  A    between atoms: _105  and  _108
REMARK   47  A    between atoms: _108  and  _109
REMARK   48  A    between atoms: _112  and  _114
REMARK   49  A    between atoms: _114  and  _115
REMARK   50  A    between atoms: _118  and  _120
REMARK   51  A    between atoms: _120  and  _121
REMARK   52  A    between atoms: _123  and  _125
REMARK   53  A    between atoms: _125  and  _126
REMARK   54  A    between atoms: _125  and  _128
REMARK   55  A    between atoms: _128  and  _129
REMARK   56  A    between atoms: _129  and  _130
REMARK   57  A    between atoms: _130  and  _131
REMARK   58  A    between atoms: _140  and  _142
REMARK   59  A    between atoms: _142  and  _143
REMARK   60  A    between atoms: _145  and  _147
REMARK   61  A    between atoms: _147  and  _148
REMARK   62  A    between atoms: _147  and  _150
REMARK   63  A    between atoms: _150  and  _151
REMARK   64  A    between atoms: _151  and  _152
REMARK   65  A    between atoms: _152  and  _153
REMARK   66  A    between atoms: _162  and  _164
REMARK   67  A    between atoms: _164  and  _165
REMARK   68  A    between atoms: _164  and  _167
REMARK   69  A    between atoms: _167  and  _168
REMARK   70  A    between atoms: _173  and  _175
REMARK   71  A    between atoms: _175  and  _176
REMARK   72  A    between atoms: _178  and  _180
REMARK   73  A    between atoms: _180  and  _181
REMARK   74  A    between atoms: _180  and  _183
REMARK   75  A    between atoms: _183  and  _184
REMARK   76  A    between atoms: _184  and  _185
REMARK   77  A    between atoms: _185  and  _186
REMARK   78  A    between atoms: _195  and  _197
REMARK   79  A    between atoms: _197  and  _198
REMARK   80  A    between atoms: _200  and  _202
REMARK   81  A    between atoms: _202  and  _203
REMARK   82  A    between atoms: _202  and  _205
REMARK   83  A    between atoms: _205  and  _206
REMARK   84  A    between atoms: _216  and  _218
REMARK   85  A    between atoms: _218  and  _219
REMARK   86  A    between atoms: _222  and  _224
REMARK   87  A    between atoms: _224  and  _225
REMARK   88  A    between atoms: _228  and  _230
REMARK   89  A    between atoms: _230  and  _231
REMARK   90  A    between atoms: _230  and  _233
REMARK   91  A    between atoms: _233  and  _234
REMARK   92  A    between atoms: _237  and  _239
REMARK   93  A    between atoms: _239  and  _240
REMARK   94  A    between atoms: _243  and  _245
REMARK   95  A    between atoms: _245  and  _246
REMARK   96  A    between atoms: _245  and  _248
REMARK   97  A    between atoms: _248  and  _249
REMARK   98  A    between atoms: _249  and  _250
REMARK   99  A    between atoms: _255  and  _257
REMARK  100  A    between atoms: _257  and  _258
REMARK  101  A    between atoms: _257  and  _260
REMARK  102  A    between atoms: _260  and  _261
REMARK  103  A    between atoms: _264  and  _266
REMARK  104  A    between atoms: _266  and  _267
REMARK  105  A    between atoms: _266  and  _269
REMARK  106  A    between atoms: _269  and  _270
REMARK  107  A    between atoms: _273  and  _275
REMARK  108  A    between atoms: _275  and  _276
REMARK  109  A    between atoms: _275  and  _278
REMARK  110  A    between atoms: _278  and  _279
REMARK  111  A    between atoms: _282  and  _284
REMARK  112  A    between atoms: _284  and  _285
REMARK  113  A    between atoms: _284  and  _287
REMARK  114  A    between atoms: _287  and  _288
REMARK  115  A    between atoms: _290  and  _292
REMARK  116  A    between atoms: _292  and  _293
REMARK  117  A    between atoms: _292  and  _295
REMARK  118  A    between atoms: _298  and  _300
REMARK  119  A    between atoms: _300  and  _301
REMARK  120  A    between atoms: _300  and  _303
REMARK  121  A    between atoms: _303  and  _304
REMARK  122  A    between atoms: _304  and  _305
REMARK  123  A    between atoms: _305  and  _306
REMARK  124  A    between atoms: _306  and  _307
REMARK  125  A    between atoms: _311  and  _313
REMARK  126  A    between atoms: _313  and  _314
REMARK  127  A    between atoms: _313  and  _316
REMARK  128  A    between atoms: _316  and  _317
REMARK  129  A    between atoms: _328  and  _329
REMARK  130  A    between atoms: _334  and  _336
REMARK  131  A    between atoms: _336  and  _337
REMARK  132  A    between atoms: _336  and  _339
REMARK  133  A    between atoms: _339  and  _340
REMARK  134  A    between atoms: _345  and  _347
REMARK  135  A    between atoms: _347  and  _348
REMARK  136  A    between atoms: _347  and  _350
REMARK  137  A    between atoms: _350  and  _351
REMARK  138  A    between atoms: _354  and  _356
REMARK  139  A    between atoms: _356  and  _357
REMARK  140  A    between atoms: _356  and  _359
REMARK  141  A    between atoms: _362  and  _364
REMARK  142  A    between atoms: _364  and  _365
REMARK  143  A    between atoms: _367  and  _369
REMARK  144  A    between atoms: _369  and  _370
REMARK  145  A    between atoms: _369  and  _372
REMARK  146  A    between atoms: _372  and  _373
REMARK  147  A    between atoms: _373  and  _374
REMARK  148  A    between atoms: _374  and  _375
REMARK  149  A    between atoms: _375  and  _376
REMARK  150  A    between atoms: _380  and  _382
REMARK  151  A    between atoms: _382  and  _383
REMARK  152  A    between atoms: _382  and  _385
REMARK  153  A    between atoms: _385  and  _386
REMARK  154  A    between atoms: _389  and  _391
REMARK  155  A    between atoms: _391  and  _392
REMARK  156  A    between atoms: _395  and  _397
REMARK  157  A    between atoms: _397  and  _398
REMARK  158  A    between atoms: _400  and  _402
REMARK  159  A    between atoms: _402  and  _403
REMARK  160  A    between atoms: _402  and  _405
REMARK  161  A    between atoms: _405  and  _406
REMARK  162  A    between atoms: _409  and  _411
REMARK  163  A    between atoms: _411  and  _412
REMARK  164  A    between atoms: _411  and  _414
REMARK  165  A    between atoms: _414  and  _415
REMARK  166  A    between atoms: _418  and  _420
REMARK  167  A    between atoms: _420  and  _421
REMARK  168  A    between atoms: _424  and  _426
REMARK  169  A    between atoms: _426  and  _427
REMARK  170  A    between atoms: _426  and  _429
REMARK  171  A    between atoms: _429  and  _430
REMARK  172  A    between atoms: _430  and  _431
REMARK  173  A    between atoms: _434  and  _436
REMARK  174  A    between atoms: _436  and  _437
REMARK  175  A    between atoms: _436  and  _439
REMARK  176  A    between atoms: _442  and  _444
REMARK  177  A    between atoms: _444  and  _445
REMARK  178  A    between atoms: _444  and  _447
REMARK  179  A    between atoms: _447  and  _448
REMARK  180  A    between atoms: _451  and  _453
REMARK  181  A    between atoms: _453  and  _454
REMARK  182  A    between atoms: _456  and  _458
REMARK  183  A    between atoms: _458  and  _459
REMARK  184  A    between atoms: _458  and  _461
REMARK  185  A    between atoms: _464  and  _466
REMARK  186  A    between atoms: _466  and  _467
REMARK  187  A    between atoms: _469  and  _471
REMARK  188  A    between atoms: _471  and  _472
REMARK  189  A    between atoms: _471  and  _474
REMARK  190  A    between atoms: _474  and  _475
REMARK  191  A    between atoms: _478  and  _480
REMARK  192  A    between atoms: _480  and  _481
REMARK  193  A    between atoms: _480  and  _483
REMARK  194  A    between atoms: _483  and  _484
REMARK  195  A    between atoms: _489  and  _491
REMARK  196  A    between atoms: _491  and  _492
REMARK  197  A    between atoms: _491  and  _494
REMARK  198  A    between atoms: _497  and  _499
REMARK  199  A    between atoms: _499  and  _500
REMARK  200  A    between atoms: _499  and  _502
REMARK  201  A    between atoms: _502  and  _503
REMARK  202  A    between atoms: _503  and  _504
REMARK  203  A    between atoms: _509  and  _511
REMARK  204  A    between atoms: _511  and  _512
REMARK  205  A    between atoms: _516  and  _517
REMARK  206  A    between atoms: _522  and  _524
REMARK  207  A    between atoms: _524  and  _525
REMARK  208  A    between atoms: _524  and  _527
REMARK  209  A    between atoms: _527  and  _528
REMARK  210  A    between atoms: _528  and  _529
REMARK  211  A    between atoms: _532  and  _534
REMARK  212  A    between atoms: _534  and  _535
REMARK  213  A    between atoms: _534  and  _537
REMARK  214  A    between atoms: _540  and  _542
REMARK  215  A    between atoms: _542  and  _543
REMARK  216  A    between atoms: _542  and  _545
REMARK  217  A    between atoms: _545  and  _546
REMARK  218  A    between atoms: _550  and  _551
REMARK  219  A    between atoms: _556  and  _558
REMARK  220  A    between atoms: _558  and  _559
REMARK  221  A    between atoms: _558  and  _561
REMARK  222  A    between atoms: _561  and  _562
REMARK  223  A    between atoms: _565  and  _567
REMARK  224  A    between atoms: _567  and  _568
REMARK  225  A    between atoms: _571  and  _573
REMARK  226  A    between atoms: _573  and  _574
REMARK  227  A    between atoms: _573  and  _576
REMARK  228  A    between atoms: _576  and  _577
REMARK  229  A    between atoms: _580  and  _582
REMARK  230  A    between atoms: _582  and  _583
REMARK  231  A    between atoms: _582  and  _585
REMARK  232  A    between atoms: _585  and  _586
REMARK  233  A    between atoms: _588  and  _590
REMARK  234  A    between atoms: _590  and  _591
REMARK  235  A    between atoms: _593  and  _595
REMARK  236  A    between atoms: _595  and  _596
REMARK  237  A    between atoms: _595  and  _598
REMARK  238  A    between atoms: _598  and  _599
REMARK  239  A    between atoms: _602  and  _604
REMARK  240  A    between atoms: _604  and  _605
REMARK  241  A    between atoms: _604  and  _607
REMARK                            x       y       z     vdW  Elec       q    Type
REMARK                         _______ _______ _______ _____ _____    ______ ____
ROOT
ATOM      1  CA  ILE A   4      -5.912 -10.271  20.113  0.00  0.00    +0.149 C 
ENDROOT
BRANCH   1   3
ATOM      2  C   ILE A   3      -8.272  -9.751  20.531  0.00  0.00    +0.241 C 
ATOM      3  N   ILE A   4      -7.074 -10.112  20.978  0.00  0.00    -0.297 N 
ATOM      4  H   ILE A   4      -6.960 -10.290  21.996  0.00  0.00    +0.150 HD
ATOM      5  O   ILE A   3      -8.520  -9.576  19.351  0.00  0.00    -0.273 OA
BRANCH   2   6
ATOM      6  CA  ILE A   3      -9.308  -9.483  21.608  0.00  0.00    +0.149 C 
BRANCH   6   9
ATOM      7  C   GLN A   2      -9.118  -7.160  22.272  0.00  0.00    +0.241 C 
ATOM      8  O   GLN A   2      -8.611  -7.409  23.372  0.00  0.00    -0.273 OA
ATOM      9  N   ILE A   3      -9.684  -8.077  21.496  0.00  0.00    -0.297 N 
ATOM     10  H   ILE A   3     -10.403  -7.790  20.801  0.00  0.00    +0.150 HD
BRANCH   7  11
ATOM     11  CA  GLN A   2      -9.093  -5.765  21.703  0.00  0.00    +0.149 C 
BRANCH  11  13
ATOM     12  C   ALA A   1      -9.485  -3.741  22.992  0.00  0.00    +0.238 C 
ATOM     13  N   GLN A   2      -8.733  -4.804  22.738  0.00  0.00    -0.297 N 
ATOM     14  H   GLN A   2      -7.865  -4.955  23.291  0.00  0.00    +0.150 HD
ATOM     15  O   ALA A   1     -10.530  -3.492  22.377  0.00  0.00    -0.274 OA
BRANCH  12  16
ATOM     16  CA  ALA A   1      -8.982  -2.825  24.104  0.00  0.00    +0.145 C 
ATOM     17  CB  ALA A   1      -8.456  -1.524  23.504  0.00  0.00    +0.028 C 
BRANCH  16  18
ATOM     18  N   ALA A   1      -7.941  -3.467  24.923  0.00  0.00    -0.238 NA
ATOM     19  H   ALA A   1      -6.947  -3.396  24.625  0.00  0.00    +0.142 HD
ENDBRANCH  16  18
ENDBRANCH  12  16
ENDBRANCH  11  13
BRANCH  11  20
ATOM     20  CB  GLN A   2      -8.091  -5.735  20.547  0.00  0.00    +0.039 C 
BRANCH  20  21
ATOM     21  CG  GLN A   2      -8.088  -4.470  19.732  0.00  0.00    +0.087 C 
BRANCH  21  22
ATOM     22  CD  GLN A   2      -7.046  -4.493  18.647  0.00  0.00    +0.219 C 
ATOM     23  NE2 GLN A   2      -6.415  -3.346  18.410  0.00  0.00    -0.329 N 
ATOM     24 HE21 GLN A   2      -6.650  -2.499  18.966  0.00  0.00    +0.145 HD
ATOM     25 HE22 GLN A   2      -5.687  -3.297  17.669  0.00  0.00    +0.145 HD
ATOM     26  OE1 GLN A   2      -6.806  -5.526  18.018  0.00  0.00    -0.275 OA
ENDBRANCH  21  22
ENDBRANCH  20  21
ENDBRANCH  11  20
ENDBRANCH   7  11
ENDBRANCH   6   9
BRANCH   6  27
ATOM     27  CB  ILE A   3     -10.516 -10.417  21.470  0.00  0.00    +0.027 C 
ATOM     28  CG2 ILE A   3     -10.062 -11.875  21.261  0.00  0.00    +0.002 C 
BRANCH  27  29
ATOM     29  CG1 ILE A   3     -11.376 -10.290  22.726  0.00  0.00    +0.002 C 
ATOM     30  CD1 ILE A   3     -12.778 -10.832  22.589  0.00  0.00    +0.000 C 
ENDBRANCH  27  29
ENDBRANCH   6  27
ENDBRANCH   2   6
ENDBRANCH   1   3
BRANCH   1  31
ATOM     31  C   ILE A   4      -5.478 -11.712  20.262  0.00  0.00    +0.241 C 
ATOM     32  O   ILE A   4      -4.958 -12.083  21.312  0.00  0.00    -0.273 OA
ATOM     33  N   LEU A   5      -5.723 -12.544  19.258  0.00  0.00    -0.297 N 
ATOM     34  H   LEU A   5      -6.160 -12.217  18.373  0.00  0.00    +0.150 HD
BRANCH  33  35
ATOM     35  CA  LEU A   5      -5.351 -13.933  19.456  0.00  0.00    +0.149 C 
BRANCH  35  36
ATOM     36  C   LEU A   5      -4.847 -14.600  18.192  0.00  0.00    +0.241 C 
ATOM     37  N   SER A   6      -4.093 -15.669  18.396  0.00  0.00    -0.295 N 
ATOM     38  H   SER A   6      -3.789 -15.897  19.364  0.00  0.00    +0.150 HD
ATOM     39  O   LEU A   5      -5.136 -14.183  17.077  0.00  0.00    -0.273 OA
BRANCH  37  40
ATOM     40  CA  SER A   6      -3.681 -16.528  17.306  0.00  0.00    +0.178 C 
BRANCH  40  41
ATOM     41  C   SER A   6      -4.015 -17.965  17.664  0.00  0.00    +0.243 C 
ATOM     42  O   SER A   6      -3.961 -18.325  18.830  0.00  0.00    -0.273 OA
ATOM     43  N   VAL A   7      -4.350 -18.776  16.669  0.00  0.00    -0.298 N 
ATOM     44  H   VAL A   7      -4.498 -18.384  15.717  0.00  0.00    +0.150 HD
BRANCH  43  45
ATOM     45  CA  VAL A   7      -4.514 -20.210  16.888  0.00  0.00    +0.137 C 
BRANCH  45  46
ATOM     46  CB  VAL A   7      -5.998 -20.672  16.851  0.00  0.00    +0.026 C 
ATOM     47  CG2 VAL A   7      -6.844 -19.845  17.809  0.00  0.00    +0.002 C 
ATOM     48  CG1 VAL A   7      -6.585 -20.615  15.427  0.00  0.00    +0.002 C 
ENDBRANCH  45  46
BRANCH  45  49
ATOM     49  C   VAL A   7      -3.734 -20.990  15.836  0.00  0.00    +0.227 C 
ATOM     50  O   VAL A   7      -3.494 -20.505  14.715  0.00  0.00    -0.286 OA
ENDBRANCH  45  49
ENDBRANCH  43  45
ENDBRANCH  40  41
BRANCH  40  51
ATOM     51  CB  SER A   6      -2.186 -16.397  17.057  0.00  0.00    +0.166 C 
BRANCH  51  52
ATOM     52  OG  SER A   6      -1.866 -15.080  16.639  0.00  0.00    -0.380 OA
ATOM     53  H   SER A   6      -2.133 -14.437  17.343  0.00  0.00    +0.211 HD
ENDBRANCH  51  52
ENDBRANCH  40  51
ENDBRANCH  37  40
ENDBRANCH  35  36
BRANCH  35  54
ATOM     54  CB  LEU A   5      -6.523 -14.735  20.051  0.00  0.00    +0.029 C 
BRANCH  54  55
ATOM     55  CG  LEU A   5      -7.845 -14.934  19.306  0.00  0.00    +0.002 C 
ATOM     56  CD2 LEU A   5      -8.946 -15.380  20.273  0.00  0.00    +0.000 C 
ATOM     57  CD1 LEU A   5      -7.712 -15.965  18.202  0.00  0.00    +0.000 C 
ENDBRANCH  54  55
ENDBRANCH  35  54
ENDBRANCH  33  35
ENDBRANCH   1  31
BRANCH   1  58
ATOM     58  CB  ILE A   4      -4.742  -9.332  20.529  0.00  0.00    +0.027 C 
ATOM     59  CG2 ILE A   4      -3.513  -9.569  19.639  0.00  0.00    +0.002 C 
BRANCH  58  60
ATOM     60  CG1 ILE A   4      -5.174  -7.861  20.443  0.00  0.00    +0.002 C 
ATOM     61  CD1 ILE A   4      -4.090  -6.883  20.918  0.00  0.00    +0.000 C 
ENDBRANCH  58  60
ENDBRANCH   1  58
TORSDOF 26
REMARK  Name = ../refined-set-2016/4xu1/4xu1_pocket.pdb
REMARK  241 active torsions:
REMARK  status: ('A' for Active; 'I' for Inactive)
REMARK    1  A    between atoms: _1  and  _3
REMARK    2  A    between atoms: _3  and  _4
REMARK    3  A    between atoms: _3  and  _6
REMARK    4  A    between atoms: _6  and  _7
REMARK    5  A    between atoms: _10  and  _12
REMARK    6  A    between atoms: _12  and  _13
REMARK    7  A    between atoms: _15  and  _17
REMARK    8  A    between atoms: _17  and  _18
REMARK    9  A    between atoms: _17  and  _20
REMARK   10  A    between atoms: _20  and  _21
REMARK   11  A    between atoms: _23  and  _25
REMARK   12  A    between atoms: _25  and  _26
REMARK   13  A    between atoms: _25  and  _28
REMARK   14  A    between atoms: _28  and  _29
REMARK   15  A    between atoms: _32  and  _34
REMARK   16  A    between atoms: _34  and  _35
REMARK   17  A    between atoms: _34  and  _37
REMARK   18  A    between atoms: _37  and  _38
REMARK   19  A    between atoms: _43  and  _45
REMARK   20  A    between atoms: _45  and  _46
REMARK   21  A    between atoms: _49  and  _51
REMARK   22  A    between atoms: _51  and  _52
REMARK   23  A    between atoms: _51  and  _54
REMARK   24  A    between atoms: _54  and  _55
REMARK   25  A    between atoms: _58  and  _60
REMARK   26  A    between atoms: _60  and  _61
REMARK   27  A    between atoms: _60  and  _63
REMARK   28  A    between atoms: _63  and  _64
REMARK   29  A    between atoms: _67  and  _69
REMARK   30  A    between atoms: _69  and  _70
REMARK   31  A    between atoms: _69  and  _72
REMARK   32  A    between atoms: _72  and  _73
REMARK   33  A    between atoms: _76  and  _78
REMARK   34  A    between atoms: _78  and  _79
REMARK   35  A    between atoms: _78  and  _81
REMARK   36  A    between atoms: _81  and  _82
REMARK   37  A    between atoms: _85  and  _87
REMARK   38  A    between atoms: _87  and  _88
REMARK   39  A    between atoms: _91  and  _93
REMARK   40  A    between atoms: _93  and  _94
REMARK   41  A    between atoms: _93  and  _96
REMARK   42  A    between atoms: _96  and  _97
REMARK   43  A    between atoms: _97  and  _98
REMARK   44  A    between atoms: _103  and  _105
REMARK   45  A    between atoms: _105  and  _106
REMARK   46  A    between atoms: _105  and  _108
REMARK   47  A    between atoms: _108  and  _109
REMARK   48  A    between atoms: _112  and  _114
REMARK   49  A    between atoms: _114  and  _115
REMARK   50  A    between atoms: _118  and  _120
REMARK   51  A    between atoms: _120  and  _121
REMARK   52  A    between atoms: _123  and  _125
REMARK   53  A    between atoms: _125  and  _126
REMARK   54  A    between atoms: _125  and  _128
REMARK   55  A    between atoms: _128  and  _129
REMARK   56  A    between atoms: _129  and  _130
REMARK   57  A    between atoms: _130  and  _131
REMARK   58  A    between atoms: _140  and  _142
REMARK   59  A    between atoms: _142  and  _143
REMARK   60  A    between atoms: _145  and  _147
REMARK   61  A    between atoms: _147  and  _148
REMARK   62  A    between atoms: _147  and  _150
REMARK   63  A    between atoms: _150  and  _151
REMARK   64  A    between atoms: _151  and  _152
REMARK   65  A    between atoms: _152  and  _153
REMARK   66  A    between atoms: _162  and  _164
REMARK   67  A    between atoms: _164  and  _165
REMARK   68  A    between atoms: _164  and  _167
REMARK   69  A    between atoms: _167  and  _168
REMARK   70  A    between atoms: _173  and  _175
REMARK   71  A    between atoms: _175  and  _176
REMARK   72  A    between atoms: _178  and  _180
REMARK   73  A    between atoms: _180  and  _181
REMARK   74  A    between atoms: _180  and  _183
REMARK   75  A    between atoms: _183  and  _184
REMARK   76  A    between atoms: _184  and  _185
REMARK   77  A    between atoms: _185  and  _186
REMARK   78  A    between atoms: _195  and  _197
REMARK   79  A    between atoms: _197  and  _198
REMARK   80  A    between atoms: _200  and  _202
REMARK   81  A    between atoms: _202  and  _203
REMARK   82  A    between atoms: _202  and  _205
REMARK   83  A    between atoms: _205  and  _206
REMARK   84  A    between atoms: _216  and  _218
REMARK   85  A    between atoms: _218  and  _219
REMARK   86  A    between atoms: _222  and  _224
REMARK   87  A    between atoms: _224  and  _225
REMARK   88  A    between atoms: _228  and  _230
REMARK   89  A    between atoms: _230  and  _231
REMARK   90  A    between atoms: _230  and  _233
REMARK   91  A    between atoms: _233  and  _234
REMARK   92  A    between atoms: _237  and  _239
REMARK   93  A    between atoms: _239  and  _240
REMARK   94  A    between atoms: _243  and  _245
REMARK   95  A    between atoms: _245  and  _246
REMARK   96  A    between atoms: _245  and  _248
REMARK   97  A    between atoms: _248  and  _249
REMARK   98  A    between atoms: _249  and  _250
REMARK   99  A    between atoms: _255  and  _257
REMARK  100  A    between atoms: _257  and  _258
REMARK  101  A    between atoms: _257  and  _260
REMARK  102  A    between atoms: _260  and  _261
REMARK  103  A    between atoms: _264  and  _266
REMARK  104  A    between atoms: _266  and  _267
REMARK  105  A    between atoms: _266  and  _269
REMARK  106  A    between atoms: _269  and  _270
REMARK  107  A    between atoms: _273  and  _275
REMARK  108  A    between atoms: _275  and  _276
REMARK  109  A    between atoms: _275  and  _278
REMARK  110  A    between atoms: _278  and  _279
REMARK  111  A    between atoms: _282  and  _284
REMARK  112  A    between atoms: _284  and  _285
REMARK  113  A    between atoms: _284  and  _287
REMARK  114  A    between atoms: _287  and  _288
REMARK  115  A    between atoms: _290  and  _292
REMARK  116  A    between atoms: _292  and  _293
REMARK  117  A    between atoms: _292  and  _295
REMARK  118  A    between atoms: _298  and  _300
REMARK  119  A    between atoms: _300  and  _301
REMARK  120  A    between atoms: _300  and  _303
REMARK  121  A    between atoms: _303  and  _304
REMARK  122  A    between atoms: _304  and  _305
REMARK  123  A    between atoms: _305  and  _306
REMARK  124  A    between atoms: _306  and  _307
REMARK  125  A    between atoms: _311  and  _313
REMARK  126  A    between atoms: _313  and  _314
REMARK  127  A    between atoms: _313  and  _316
REMARK  128  A    between atoms: _316  and  _317
REMARK  129  A    between atoms: _328  and  _329
REMARK  130  A    between atoms: _334  and  _336
REMARK  131  A    between atoms: _336  and  _337
REMARK  132  A    between atoms: _336  and  _339
REMARK  133  A    between atoms: _339  and  _340
REMARK  134  A    between atoms: _345  and  _347
REMARK  135  A    between atoms: _347  and  _348
REMARK  136  A    between atoms: _347  and  _350
REMARK  137  A    between atoms: _350  and  _351
REMARK  138  A    between atoms: _354  and  _356
REMARK  139  A    between atoms: _356  and  _357
REMARK  140  A    between atoms: _356  and  _359
REMARK  141  A    between atoms: _362  and  _364
REMARK  142  A    between atoms: _364  and  _365
REMARK  143  A    between atoms: _367  and  _369
REMARK  144  A    between atoms: _369  and  _370
REMARK  145  A    between atoms: _369  and  _372
REMARK  146  A    between atoms: _372  and  _373
REMARK  147  A    between atoms: _373  and  _374
REMARK  148  A    between atoms: _374  and  _375
REMARK  149  A    between atoms: _375  and  _376
REMARK  150  A    between atoms: _380  and  _382
REMARK  151  A    between atoms: _382  and  _383
REMARK  152  A    between atoms: _382  and  _385
REMARK  153  A    between atoms: _385  and  _386
REMARK  154  A    between atoms: _389  and  _391
REMARK  155  A    between atoms: _391  and  _392
REMARK  156  A    between atoms: _395  and  _397
REMARK  157  A    between atoms: _397  and  _398
REMARK  158  A    between atoms: _400  and  _402
REMARK  159  A    between atoms: _402  and  _403
REMARK  160  A    between atoms: _402  and  _405
REMARK  161  A    between atoms: _405  and  _406
REMARK  162  A    between atoms: _409  and  _411
REMARK  163  A    between atoms: _411  and  _412
REMARK  164  A    between atoms: _411  and  _414
REMARK  165  A    between atoms: _414  and  _415
REMARK  166  A    between atoms: _418  and  _420
REMARK  167  A    between atoms: _420  and  _421
REMARK  168  A    between atoms: _424  and  _426
REMARK  169  A    between atoms: _426  and  _427
REMARK  170  A    between atoms: _426  and  _429
REMARK  171  A    between atoms: _429  and  _430
REMARK  172  A    between atoms: _430  and  _431
REMARK  173  A    between atoms: _434  and  _436
REMARK  174  A    between atoms: _436  and  _437
REMARK  175  A    between atoms: _436  and  _439
REMARK  176  A    between atoms: _442  and  _444
REMARK  177  A    between atoms: _444  and  _445
REMARK  178  A    between atoms: _444  and  _447
REMARK  179  A    between atoms: _447  and  _448
REMARK  180  A    between atoms: _451  and  _453
REMARK  181  A    between atoms: _453  and  _454
REMARK  182  A    between atoms: _456  and  _458
REMARK  183  A    between atoms: _458  and  _459
REMARK  184  A    between atoms: _458  and  _461
REMARK  185  A    between atoms: _464  and  _466
REMARK  186  A    between atoms: _466  and  _467
REMARK  187  A    between atoms: _469  and  _471
REMARK  188  A    between atoms: _471  and  _472
REMARK  189  A    between atoms: _471  and  _474
REMARK  190  A    between atoms: _474  and  _475
REMARK  191  A    between atoms: _478  and  _480
REMARK  192  A    between atoms: _480  and  _481
REMARK  193  A    between atoms: _480  and  _483
REMARK  194  A    between atoms: _483  and  _484
REMARK  195  A    between atoms: _489  and  _491
REMARK  196  A    between atoms: _491  and  _492
REMARK  197  A    between atoms: _491  and  _494
REMARK  198  A    between atoms: _497  and  _499
REMARK  199  A    between atoms: _499  and  _500
REMARK  200  A    between atoms: _499  and  _502
REMARK  201  A    between atoms: _502  and  _503
REMARK  202  A    between atoms: _503  and  _504
REMARK  203  A    between atoms: _509  and  _511
REMARK  204  A    between atoms: _511  and  _512
REMARK  205  A    between atoms: _516  and  _517
REMARK  206  A    between atoms: _522  and  _524
REMARK  207  A    between atoms: _524  and  _525
REMARK  208  A    between atoms: _524  and  _527
REMARK  209  A    between atoms: _527  and  _528
REMARK  210  A    between atoms: _528  and  _529
REMARK  211  A    between atoms: _532  and  _534
REMARK  212  A    between atoms: _534  and  _535
REMARK  213  A    between atoms: _534  and  _537
REMARK  214  A    between atoms: _540  and  _542
REMARK  215  A    between atoms: _542  and  _543
REMARK  216  A    between atoms: _542  and  _545
REMARK  217  A    between atoms: _545  and  _546
REMARK  218  A    between atoms: _550  and  _551
REMARK  219  A    between atoms: _556  and  _558
REMARK  220  A    between atoms: _558  and  _559
REMARK  221  A    between atoms: _558  and  _561
REMARK  222  A    between atoms: _561  and  _562
REMARK  223  A    between atoms: _565  and  _567
REMARK  224  A    between atoms: _567  and  _568
REMARK  225  A    between atoms: _571  and  _573
REMARK  226  A    between atoms: _573  and  _574
REMARK  227  A    between atoms: _573  and  _576
REMARK  228  A    between atoms: _576  and  _577
REMARK  229  A    between atoms: _580  and  _582
REMARK  230  A    between atoms: _582  and  _583
REMARK  231  A    between atoms: _582  and  _585
REMARK  232  A    between atoms: _585  and  _586
REMARK  233  A    between atoms: _588  and  _590
REMARK  234  A    between atoms: _590  and  _591
REMARK  235  A    between atoms: _593  and  _595
REMARK  236  A    between atoms: _595  and  _596
REMARK  237  A    between atoms: _595  and  _598
REMARK  238  A    between atoms: _598  and  _599
REMARK  239  A    between atoms: _602  and  _604
REMARK  240  A    between atoms: _604  and  _605
REMARK  241  A    between atoms: _604  and  _607
REMARK                            x       y       z     vdW  Elec       q    Type
REMARK                         _______ _______ _______ _____ _____    ______ ____
ROOT
ATOM      1  C   TRP A   2     -11.650  -9.253   1.060  0.00  0.00    +0.244 C 
ATOM      2  N   PRO A   3     -10.731 -10.069   1.603  0.00  0.00    -0.272 N 
ATOM      3  CA  PRO A   3     -10.999 -11.473   1.964  0.00  0.00    +0.152 C 
ATOM      4  CB  PRO A   3      -9.594 -12.058   2.151  0.00  0.00    +0.031 C 
ATOM      5  CG  PRO A   3      -8.661 -11.089   1.526  0.00  0.00    +0.024 C 
ATOM      6  CD  PRO A   3      -9.298  -9.745   1.683  0.00  0.00    +0.094 C 
ATOM      7  O   TRP A   2     -11.409  -8.090   0.718  0.00  0.00    -0.273 OA
ENDROOT
BRANCH   3   8
ATOM      8  C   PRO A   3     -11.835 -11.683   3.246  0.00  0.00    +0.241 C 
ATOM      9  N   ASN A   4     -11.376 -11.143   4.364  0.00  0.00    -0.297 N 
ATOM     10  H   ASN A   4     -10.552 -10.509   4.344  0.00  0.00    +0.150 HD
ATOM     11  O   PRO A   3     -12.904 -12.316   3.220  0.00  0.00    -0.273 OA
BRANCH   9  12
ATOM     12  CA  ASN A   4     -12.041 -11.449   5.623  0.00  0.00    +0.158 C 
BRANCH  12  13
ATOM     13  C   ASN A   4     -12.030 -10.274   6.607  0.00  0.00    +0.241 C 
ATOM     14  O   ASN A   4     -12.132 -10.494   7.819  0.00  0.00    -0.273 OA
ATOM     15  N   ASP A   5     -11.892  -9.039   6.103  0.00  0.00    -0.297 N 
ATOM     16  H   ASP A   5     -11.599  -8.908   5.114  0.00  0.00    +0.150 HD
BRANCH  15  17
ATOM     17  CA  ASP A   5     -12.156  -7.871   6.955  0.00  0.00    +0.160 C 
BRANCH  17  18
ATOM     18  C   ASP A   5     -13.573  -7.984   7.491  0.00  0.00    +0.241 C 
ATOM     19  N   VAL A   6     -13.736  -7.834   8.792  0.00  0.00    -0.298 N 
ATOM     20  H   VAL A   6     -12.902  -7.748   9.408  0.00  0.00    +0.150 HD
ATOM     21  O   ASP A   5     -14.511  -8.190   6.738  0.00  0.00    -0.273 OA
BRANCH  19  22
ATOM     22  CA  VAL A   6     -15.060  -7.788   9.371  0.00  0.00    +0.137 C 
BRANCH  22  23
ATOM     23  CB  VAL A   6     -15.102  -8.443  10.746  0.00  0.00    +0.026 C 
ATOM     24  CG2 VAL A   6     -16.522  -8.407  11.304  0.00  0.00    +0.002 C 
ATOM     25  CG1 VAL A   6     -14.575  -9.884  10.654  0.00  0.00    +0.002 C 
ENDBRANCH  22  23
BRANCH  22  26
ATOM     26  C   VAL A   6     -15.482  -6.334   9.498  0.00  0.00    +0.227 C 
ATOM     27  O   VAL A   6     -14.829  -5.576  10.209  0.00  0.00    -0.286 OA
ENDBRANCH  22  26
ENDBRANCH  19  22
ENDBRANCH  17  18
BRANCH  17  28
ATOM     28  CB  ASP A   5     -12.023  -6.545   6.196  0.00  0.00    +0.143 C 
BRANCH  28  29
ATOM     29  CG  ASP A   5     -10.587  -6.122   5.985  0.00  0.00    +0.367 C 
ATOM     30  OD2 ASP A   5      -9.671  -6.867   6.384  0.00  0.00    -0.246 OA
ATOM     31  OD1 ASP A   5     -10.381  -5.038   5.413  0.00  0.00    -0.246 OA
ENDBRANCH  28  29
ENDBRANCH  17  28
ENDBRANCH  15  17
ENDBRANCH  12  13
BRANCH  12  32
ATOM     32  CB  ASN A   4     -11.382 -12.686   6.260  0.00  0.00    +0.114 C 
BRANCH  32  33
ATOM     33  CG  ASN A   4      -9.897 -12.567   6.287  0.00  0.00    +0.222 C 
ATOM     34  ND2 ASN A   4      -9.195 -13.685   6.464  0.00  0.00    -0.329 N 
ATOM     35 HD21 ASN A   4      -9.686 -14.594   6.584  0.00  0.00    +0.145 HD
ATOM     36 HD22 ASN A   4      -8.156 -13.649   6.483  0.00  0.00    +0.145 HD
ATOM     37  OD1 ASN A   4      -9.372 -11.462   6.140  0.00  0.00    -0.275 OA
ENDBRANCH  32  33
ENDBRANCH  12  32
ENDBRANCH   9  12
ENDBRANCH   3   8
BRANCH   1  38
ATOM     38  CA  TRP A   2     -13.046  -9.827   0.878  0.00  0.00    +0.153 C 
BRANCH  38  41
ATOM     39  C   LYS A   1     -14.045  -8.444   2.602  0.00  0.00    +0.238 C 
ATOM     40  O   LYS A   1     -13.214  -8.798   3.436  0.00  0.00    -0.274 OA
ATOM     41  N   TRP A   2     -14.031  -8.859   1.340  0.00  0.00    -0.297 N 
ATOM     42  H   TRP A   2     -14.735  -8.487   0.671  0.00  0.00    +0.150 HD
BRANCH  39  43
ATOM     43  CA  LYS A   1     -15.154  -7.497   3.001  0.00  0.00    +0.145 C 
BRANCH  43  44
ATOM     44  N   LYS A   1     -15.794  -8.035   4.193  0.00  0.00    -0.238 NA
ATOM     45  H   LYS A   1     -15.379  -7.854   5.129  0.00  0.00    +0.142 HD
ENDBRANCH  43  44
BRANCH  43  46
ATOM     46  CB  LYS A   1     -14.590  -6.085   3.234  0.00  0.00    +0.026 C 
BRANCH  46  47
ATOM     47  CG  LYS A   1     -13.672  -5.646   2.090  0.00  0.00    -0.000 C 
BRANCH  47  48
ATOM     48  CD  LYS A   1     -13.540  -4.134   1.997  0.00  0.00    -0.024 C 
BRANCH  48  49
ATOM     49  CE  LYS A   1     -12.734  -3.580   3.132  0.00  0.00    -0.086 C 
BRANCH  49  50
ATOM     50  NZ  LYS A   1     -12.468  -2.131   2.900  0.00  0.00    +0.380 N 
ATOM     51  HZ1 LYS A   1     -11.909  -1.752   3.690  0.00  0.00    -0.089 HD
ATOM     52  HZ2 LYS A   1     -13.371  -1.620   2.836  0.00  0.00    -0.089 HD
ATOM     53  HZ3 LYS A   1     -11.939  -2.015   2.012  0.00  0.00    -0.089 HD
ENDBRANCH  49  50
ENDBRANCH  48  49
ENDBRANCH  47  48
ENDBRANCH  46  47
ENDBRANCH  43  46
ENDBRANCH  39  43
ENDBRANCH  38  41
BRANCH  38  54
ATOM     54  CB  TRP A   2     -13.279 -10.214  -0.584  0.00  0.00    +0.057 C 
BRANCH  54  55
ATOM     55  CG  TRP A   2     -12.348 -11.291  -1.049  0.00  0.00    -0.002 A 
ATOM     56  CD1 TRP A   2     -12.558 -12.643  -0.987  0.00  0.00    +0.068 A 
ATOM     57  NE1 TRP A   2     -11.477 -13.312  -1.492  0.00  0.00    -0.352 N 
ATOM     58  HE1 TRP A   2     -11.388 -14.345  -1.567  0.00  0.00    +0.166 HD
ATOM     59  CE2 TRP A   2     -10.530 -12.402  -1.883  0.00  0.00    +0.056 A 
ATOM     60  CZ2 TRP A   2      -9.276 -12.599  -2.453  0.00  0.00    +0.017 A 
ATOM     61  CH2 TRP A   2      -8.540 -11.490  -2.756  0.00  0.00    +0.001 A 
ATOM     62  CZ3 TRP A   2      -9.023 -10.200  -2.506  0.00  0.00    +0.000 A 
ATOM     63  CE3 TRP A   2     -10.265 -10.001  -1.935  0.00  0.00    +0.001 A 
ATOM     64  CD2 TRP A   2     -11.043 -11.118  -1.617  0.00  0.00    +0.013 A 
ENDBRANCH  54  55
ENDBRANCH  38  54
ENDBRANCH   1  38
TORSDOF 23
REMARK  Name = ../refined-set-2016/4xu1/4xu1_pocket.pdb
REMARK  241 active torsions:
REMARK  status: ('A' for Active; 'I' for Inactive)
REMARK    1  A    between atoms: _1  and  _3
REMARK    2  A    between atoms: _3  and  _4
REMARK    3  A    between atoms: _3  and  _6
REMARK    4  A    between atoms: _6  and  _7
REMARK    5  A    between atoms: _10  and  _12
REMARK    6  A    between atoms: _12  and  _13
REMARK    7  A    between atoms: _15  and  _17
REMARK    8  A    between atoms: _17  and  _18
REMARK    9  A    between atoms: _17  and  _20
REMARK   10  A    between atoms: _20  and  _21
REMARK   11  A    between atoms: _23  and  _25
REMARK   12  A    between atoms: _25  and  _26
REMARK   13  A    between atoms: _25  and  _28
REMARK   14  A    between atoms: _28  and  _29
REMARK   15  A    between atoms: _32  and  _34
REMARK   16  A    between atoms: _34  and  _35
REMARK   17  A    between atoms: _34  and  _37
REMARK   18  A    between atoms: _37  and  _38
REMARK   19  A    between atoms: _43  and  _45
REMARK   20  A    between atoms: _45  and  _46
REMARK   21  A    between atoms: _49  and  _51
REMARK   22  A    between atoms: _51  and  _52
REMARK   23  A    between atoms: _51  and  _54
REMARK   24  A    between atoms: _54  and  _55
REMARK   25  A    between atoms: _58  and  _60
REMARK   26  A    between atoms: _60  and  _61
REMARK   27  A    between atoms: _60  and  _63
REMARK   28  A    between atoms: _63  and  _64
REMARK   29  A    between atoms: _67  and  _69
REMARK   30  A    between atoms: _69  and  _70
REMARK   31  A    between atoms: _69  and  _72
REMARK   32  A    between atoms: _72  and  _73
REMARK   33  A    between atoms: _76  and  _78
REMARK   34  A    between atoms: _78  and  _79
REMARK   35  A    between atoms: _78  and  _81
REMARK   36  A    between atoms: _81  and  _82
REMARK   37  A    between atoms: _85  and  _87
REMARK   38  A    between atoms: _87  and  _88
REMARK   39  A    between atoms: _91  and  _93
REMARK   40  A    between atoms: _93  and  _94
REMARK   41  A    between atoms: _93  and  _96
REMARK   42  A    between atoms: _96  and  _97
REMARK   43  A    between atoms: _97  and  _98
REMARK   44  A    between atoms: _103  and  _105
REMARK   45  A    between atoms: _105  and  _106
REMARK   46  A    between atoms: _105  and  _108
REMARK   47  A    between atoms: _108  and  _109
REMARK   48  A    between atoms: _112  and  _114
REMARK   49  A    between atoms: _114  and  _115
REMARK   50  A    between atoms: _118  and  _120
REMARK   51  A    between atoms: _120  and  _121
REMARK   52  A    between atoms: _123  and  _125
REMARK   53  A    between atoms: _125  and  _126
REMARK   54  A    between atoms: _125  and  _128
REMARK   55  A    between atoms: _128  and  _129
REMARK   56  A    between atoms: _129  and  _130
REMARK   57  A    between atoms: _130  and  _131
REMARK   58  A    between atoms: _140  and  _142
REMARK   59  A    between atoms: _142  and  _143
REMARK   60  A    between atoms: _145  and  _147
REMARK   61  A    between atoms: _147  and  _148
REMARK   62  A    between atoms: _147  and  _150
REMARK   63  A    between atoms: _150  and  _151
REMARK   64  A    between atoms: _151  and  _152
REMARK   65  A    between atoms: _152  and  _153
REMARK   66  A    between atoms: _162  and  _164
REMARK   67  A    between atoms: _164  and  _165
REMARK   68  A    between atoms: _164  and  _167
REMARK   69  A    between atoms: _167  and  _168
REMARK   70  A    between atoms: _173  and  _175
REMARK   71  A    between atoms: _175  and  _176
REMARK   72  A    between atoms: _178  and  _180
REMARK   73  A    between atoms: _180  and  _181
REMARK   74  A    between atoms: _180  and  _183
REMARK   75  A    between atoms: _183  and  _184
REMARK   76  A    between atoms: _184  and  _185
REMARK   77  A    between atoms: _185  and  _186
REMARK   78  A    between atoms: _195  and  _197
REMARK   79  A    between atoms: _197  and  _198
REMARK   80  A    between atoms: _200  and  _202
REMARK   81  A    between atoms: _202  and  _203
REMARK   82  A    between atoms: _202  and  _205
REMARK   83  A    between atoms: _205  and  _206
REMARK   84  A    between atoms: _216  and  _218
REMARK   85  A    between atoms: _218  and  _219
REMARK   86  A    between atoms: _222  and  _224
REMARK   87  A    between atoms: _224  and  _225
REMARK   88  A    between atoms: _228  and  _230
REMARK   89  A    between atoms: _230  and  _231
REMARK   90  A    between atoms: _230  and  _233
REMARK   91  A    between atoms: _233  and  _234
REMARK   92  A    between atoms: _237  and  _239
REMARK   93  A    between atoms: _239  and  _240
REMARK   94  A    between atoms: _243  and  _245
REMARK   95  A    between atoms: _245  and  _246
REMARK   96  A    between atoms: _245  and  _248
REMARK   97  A    between atoms: _248  and  _249
REMARK   98  A    between atoms: _249  and  _250
REMARK   99  A    between atoms: _255  and  _257
REMARK  100  A    between atoms: _257  and  _258
REMARK  101  A    between atoms: _257  and  _260
REMARK  102  A    between atoms: _260  and  _261
REMARK  103  A    between atoms: _264  and  _266
REMARK  104  A    between atoms: _266  and  _267
REMARK  105  A    between atoms: _266  and  _269
REMARK  106  A    between atoms: _269  and  _270
REMARK  107  A    between atoms: _273  and  _275
REMARK  108  A    between atoms: _275  and  _276
REMARK  109  A    between atoms: _275  and  _278
REMARK  110  A    between atoms: _278  and  _279
REMARK  111  A    between atoms: _282  and  _284
REMARK  112  A    between atoms: _284  and  _285
REMARK  113  A    between atoms: _284  and  _287
REMARK  114  A    between atoms: _287  and  _288
REMARK  115  A    between atoms: _290  and  _292
REMARK  116  A    between atoms: _292  and  _293
REMARK  117  A    between atoms: _292  and  _295
REMARK  118  A    between atoms: _298  and  _300
REMARK  119  A    between atoms: _300  and  _301
REMARK  120  A    between atoms: _300  and  _303
REMARK  121  A    between atoms: _303  and  _304
REMARK  122  A    between atoms: _304  and  _305
REMARK  123  A    between atoms: _305  and  _306
REMARK  124  A    between atoms: _306  and  _307
REMARK  125  A    between atoms: _311  and  _313
REMARK  126  A    between atoms: _313  and  _314
REMARK  127  A    between atoms: _313  and  _316
REMARK  128  A    between atoms: _316  and  _317
REMARK  129  A    between atoms: _328  and  _329
REMARK  130  A    between atoms: _334  and  _336
REMARK  131  A    between atoms: _336  and  _337
REMARK  132  A    between atoms: _336  and  _339
REMARK  133  A    between atoms: _339  and  _340
REMARK  134  A    between atoms: _345  and  _347
REMARK  135  A    between atoms: _347  and  _348
REMARK  136  A    between atoms: _347  and  _350
REMARK  137  A    between atoms: _350  and  _351
REMARK  138  A    between atoms: _354  and  _356
REMARK  139  A    between atoms: _356  and  _357
REMARK  140  A    between atoms: _356  and  _359
REMARK  141  A    between atoms: _362  and  _364
REMARK  142  A    between atoms: _364  and  _365
REMARK  143  A    between atoms: _367  and  _369
REMARK  144  A    between atoms: _369  and  _370
REMARK  145  A    between atoms: _369  and  _372
REMARK  146  A    between atoms: _372  and  _373
REMARK  147  A    between atoms: _373  and  _374
REMARK  148  A    between atoms: _374  and  _375
REMARK  149  A    between atoms: _375  and  _376
REMARK  150  A    between atoms: _380  and  _382
REMARK  151  A    between atoms: _382  and  _383
REMARK  152  A    between atoms: _382  and  _385
REMARK  153  A    between atoms: _385  and  _386
REMARK  154  A    between atoms: _389  and  _391
REMARK  155  A    between atoms: _391  and  _392
REMARK  156  A    between atoms: _395  and  _397
REMARK  157  A    between atoms: _397  and  _398
REMARK  158  A    between atoms: _400  and  _402
REMARK  159  A    between atoms: _402  and  _403
REMARK  160  A    between atoms: _402  and  _405
REMARK  161  A    between atoms: _405  and  _406
REMARK  162  A    between atoms: _409  and  _411
REMARK  163  A    between atoms: _411  and  _412
REMARK  164  A    between atoms: _411  and  _414
REMARK  165  A    between atoms: _414  and  _415
REMARK  166  A    between atoms: _418  and  _420
REMARK  167  A    between atoms: _420  and  _421
REMARK  168  A    between atoms: _424  and  _426
REMARK  169  A    between atoms: _426  and  _427
REMARK  170  A    between atoms: _426  and  _429
REMARK  171  A    between atoms: _429  and  _430
REMARK  172  A    between atoms: _430  and  _431
REMARK  173  A    between atoms: _434  and  _436
REMARK  174  A    between atoms: _436  and  _437
REMARK  175  A    between atoms: _436  and  _439
REMARK  176  A    between atoms: _442  and  _444
REMARK  177  A    between atoms: _444  and  _445
REMARK  178  A    between atoms: _444  and  _447
REMARK  179  A    between atoms: _447  and  _448
REMARK  180  A    between atoms: _451  and  _453
REMARK  181  A    between atoms: _453  and  _454
REMARK  182  A    between atoms: _456  and  _458
REMARK  183  A    between atoms: _458  and  _459
REMARK  184  A    between atoms: _458  and  _461
REMARK  185  A    between atoms: _464  and  _466
REMARK  186  A    between atoms: _466  and  _467
REMARK  187  A    between atoms: _469  and  _471
REMARK  188  A    between atoms: _471  and  _472
REMARK  189  A    between atoms: _471  and  _474
REMARK  190  A    between atoms: _474  and  _475
REMARK  191  A    between atoms: _478  and  _480
REMARK  192  A    between atoms: _480  and  _481
REMARK  193  A    between atoms: _480  and  _483
REMARK  194  A    between atoms: _483  and  _484
REMARK  195  A    between atoms: _489  and  _491
REMARK  196  A    between atoms: _491  and  _492
REMARK  197  A    between atoms: _491  and  _494
REMARK  198  A    between atoms: _497  and  _499
REMARK  199  A    between atoms: _499  and  _500
REMARK  200  A    between atoms: _499  and  _502
REMARK  201  A    between atoms: _502  and  _503
REMARK  202  A    between atoms: _503  and  _504
REMARK  203  A    between atoms: _509  and  _511
REMARK  204  A    between atoms: _511  and  _512
REMARK  205  A    between atoms: _516  and  _517
REMARK  206  A    between atoms: _522  and  _524
REMARK  207  A    between atoms: _524  and  _525
REMARK  208  A    between atoms: _524  and  _527
REMARK  209  A    between atoms: _527  and  _528
REMARK  210  A    between atoms: _528  and  _529
REMARK  211  A    between atoms: _532  and  _534
REMARK  212  A    between atoms: _534  and  _535
REMARK  213  A    between atoms: _534  and  _537
REMARK  214  A    between atoms: _540  and  _542
REMARK  215  A    between atoms: _542  and  _543
REMARK  216  A    between atoms: _542  and  _545
REMARK  217  A    between atoms: _545  and  _546
REMARK  218  A    between atoms: _550  and  _551
REMARK  219  A    between atoms: _556  and  _558
REMARK  220  A    between atoms: _558  and  _559
REMARK  221  A    between atoms: _558  and  _561
REMARK  222  A    between atoms: _561  and  _562
REMARK  223  A    between atoms: _565  and  _567
REMARK  224  A    between atoms: _567  and  _568
REMARK  225  A    between atoms: _571  and  _573
REMARK  226  A    between atoms: _573  and  _574
REMARK  227  A    between atoms: _573  and  _576
REMARK  228  A    between atoms: _576  and  _577
REMARK  229  A    between atoms: _580  and  _582
REMARK  230  A    between atoms: _582  and  _583
REMARK  231  A    between atoms: _582  and  _585
REMARK  232  A    between atoms: _585  and  _586
REMARK  233  A    between atoms: _588  and  _590
REMARK  234  A    between atoms: _590  and  _591
REMARK  235  A    between atoms: _593  and  _595
REMARK  236  A    between atoms: _595  and  _596
REMARK  237  A    between atoms: _595  and  _598
REMARK  238  A    between atoms: _598  and  _599
REMARK  239  A    between atoms: _602  and  _604
REMARK  240  A    between atoms: _604  and  _605
REMARK  241  A    between atoms: _604  and  _607
REMARK                            x       y       z     vdW  Elec       q    Type
REMARK                         _______ _______ _______ _____ _____    ______ ____
ROOT
ATOM      1  CA  GLY A   5      -8.681  -7.983  10.785  0.00  0.00    +0.176 C 
ENDROOT
BRANCH   1   3
ATOM      2  C   ALA A   4     -10.830  -7.238  11.680  0.00  0.00    +0.241 C 
ATOM      3  N   GLY A   5      -9.552  -7.557  11.865  0.00  0.00    -0.295 N 
ATOM      4  H   GLY A   5      -9.159  -7.499  12.826  0.00  0.00    +0.150 HD
ATOM      5  O   ALA A   4     -11.367  -7.145  10.576  0.00  0.00    -0.273 OA
BRANCH   2   6
ATOM      6  CA  ALA A   4     -11.622  -6.995  12.937  0.00  0.00    +0.149 C 
ATOM      7  CB  ALA A   4     -12.229  -8.324  13.430  0.00  0.00    +0.031 C 
BRANCH   6  10
ATOM      8  C   LEU A   3     -13.125  -5.232  13.701  0.00  0.00    +0.241 C 
ATOM      9  O   LEU A   3     -12.736  -5.356  14.866  0.00  0.00    -0.273 OA
ATOM     10  N   ALA A   4     -12.663  -5.987  12.708  0.00  0.00    -0.297 N 
ATOM     11  H   ALA A   4     -13.048  -5.860  11.750  0.00  0.00    +0.150 HD
BRANCH   8  12
ATOM     12  CA  LEU A   3     -14.179  -4.176  13.324  0.00  0.00    +0.149 C 
BRANCH  12  15
ATOM     13  C   LYS A   2     -13.205  -2.613  11.704  0.00  0.00    +0.241 C 
ATOM     14  O   LYS A   2     -12.518  -2.026  12.549  0.00  0.00    -0.273 OA
ATOM     15  N   LEU A   3     -13.967  -3.669  11.979  0.00  0.00    -0.297 N 
ATOM     16  H   LEU A   3     -14.436  -4.157  11.189  0.00  0.00    +0.150 HD
BRANCH  13  17
ATOM     17  CA  LYS A   2     -13.221  -2.171  10.249  0.00  0.00    +0.149 C 
BRANCH  17  19
ATOM     18  C   GLY A   1     -15.199  -0.812   9.986  0.00  0.00    +0.240 C 
ATOM     19  N   LYS A   2     -13.876  -0.867  10.119  0.00  0.00    -0.297 N 
ATOM     20  H   LYS A   2     -13.313   0.007  10.131  0.00  0.00    +0.150 HD
ATOM     21  O   GLY A   1     -15.907  -1.808  10.029  0.00  0.00    -0.274 OA
BRANCH  18  22
ATOM     22  CA  GLY A   1     -15.835   0.555   9.778  0.00  0.00    +0.169 C 
BRANCH  22  23
ATOM     23  N   GLY A   1     -17.089   0.438   9.039  0.00  0.00    -0.236 NA
ATOM     24  H   GLY A   1     -17.954   0.158   9.544  0.00  0.00    +0.142 HD
ENDBRANCH  22  23
ENDBRANCH  18  22
ENDBRANCH  17  19
BRANCH  17  25
ATOM     25  CB  LYS A   2     -11.813  -2.135   9.671  0.00  0.00    +0.029 C 
BRANCH  25  26
ATOM     26  CG  LYS A   2     -11.069  -3.489   9.746  0.00  0.00    +0.000 C 
BRANCH  26  27
ATOM     27  CD  LYS A   2      -9.931  -3.498   8.759  0.00  0.00    -0.024 C 
BRANCH  27  28
ATOM     28  CE  LYS A   2      -9.115  -4.776   8.843  0.00  0.00    -0.086 C 
BRANCH  28  29
ATOM     29  NZ  LYS A   2      -8.108  -4.805   7.745  0.00  0.00    +0.380 N 
ATOM     30  HZ1 LYS A   2      -7.474  -3.985   7.836  0.00  0.00    -0.089 HD
ATOM     31  HZ2 LYS A   2      -7.553  -5.682   7.808  0.00  0.00    -0.089 HD
ATOM     32  HZ3 LYS A   2      -8.596  -4.768   6.827  0.00  0.00    -0.089 HD
ENDBRANCH  28  29
ENDBRANCH  27  28
ENDBRANCH  26  27
ENDBRANCH  25  26
ENDBRANCH  17  25
ENDBRANCH  13  17
ENDBRANCH  12  15
BRANCH  12  33
ATOM     33  CB  LEU A   3     -15.598  -4.755  13.427  0.00  0.00    +0.029 C 
BRANCH  33  34
ATOM     34  CG  LEU A   3     -16.082  -5.388  14.714  0.00  0.00    +0.002 C 
ATOM     35  CD2 LEU A   3     -15.926  -4.418  15.878  0.00  0.00    +0.000 C 
ATOM     36  CD1 LEU A   3     -17.555  -5.793  14.570  0.00  0.00    +0.000 C 
ENDBRANCH  33  34
ENDBRANCH  12  33
ENDBRANCH   8  12
ENDBRANCH   6  10
ENDBRANCH   2   6
ENDBRANCH   1   3
BRANCH   1  37
ATOM     37  C   GLY A   5      -8.130  -9.359  11.097  0.00  0.00    +0.243 C 
ATOM     38  O   GLY A   5      -7.884  -9.690  12.254  0.00  0.00    -0.273 OA
ATOM     39  N   ILE A   6      -7.925 -10.141  10.051  0.00  0.00    -0.297 N 
ATOM     40  H   ILE A   6      -8.085  -9.754   9.099  0.00  0.00    +0.150 HD
BRANCH  39  41
ATOM     41  CA  ILE A   6      -7.485 -11.519  10.177  0.00  0.00    +0.149 C 
BRANCH  41  42
ATOM     42  C   ILE A   6      -6.251 -11.743   9.303  0.00  0.00    +0.241 C 
ATOM     43  N   LEU A   7      -5.242 -12.412   9.858  0.00  0.00    -0.297 N 
ATOM     44  H   LEU A   7      -5.328 -12.720  10.848  0.00  0.00    +0.150 HD
ATOM     45  O   ILE A   6      -6.212 -11.305   8.152  0.00  0.00    -0.273 OA
BRANCH  43  46
ATOM     46  CA  LEU A   7      -4.014 -12.730   9.122  0.00  0.00    +0.149 C 
BRANCH  46  47
ATOM     47  C   LEU A   7      -3.669 -14.214   9.236  0.00  0.00    +0.241 C 
ATOM     48  O   LEU A   7      -3.562 -14.749  10.346  0.00  0.00    -0.273 OA
ATOM     49  N   ALA A   8      -3.490 -14.880   8.094  0.00  0.00    -0.297 N 
ATOM     50  H   ALA A   8      -3.623 -14.381   7.191  0.00  0.00    +0.150 HD
BRANCH  49  51
ATOM     51  CA  ALA A   8      -3.112 -16.294   8.077  0.00  0.00    +0.149 C 
ATOM     52  CB  ALA A   8      -4.044 -17.094   7.190  0.00  0.00    +0.031 C 
BRANCH  51  53
ATOM     53  C   ALA A   8      -1.676 -16.421   7.575  0.00  0.00    +0.241 C 
ATOM     54  N   GLU A   9      -0.864 -17.185   8.291  0.00  0.00    -0.298 N 
ATOM     55  H   GLU A   9      -1.225 -17.650   9.148  0.00  0.00    +0.150 HD
ATOM     56  O   ALA A   8      -1.316 -15.824   6.553  0.00  0.00    -0.273 OA
BRANCH  54  57
ATOM     57  CA  GLU A   9       0.527 -17.386   7.900  0.00  0.00    +0.137 C 
BRANCH  57  58
ATOM     58  C   GLU A   9       0.909 -18.857   7.990  0.00  0.00    +0.227 C 
ATOM     59  O   GLU A   9       0.420 -19.589   8.841  0.00  0.00    -0.286 OA
ENDBRANCH  57  58
BRANCH  57  60
ATOM     60  CB  GLU A   9       1.461 -16.549   8.773  0.00  0.00    +0.039 C 
BRANCH  60  61
ATOM     61  CG  GLU A   9       1.168 -15.060   8.725  0.00  0.00    +0.116 C 
BRANCH  61  62
ATOM     62  CD  GLU A   9       2.193 -14.257   9.500  0.00  0.00    +0.365 C 
ATOM     63  OE2 GLU A   9       1.928 -13.924  10.668  0.00  0.00    -0.246 OA
ATOM     64  OE1 GLU A   9       3.273 -13.963   8.941  0.00  0.00    -0.246 OA
ENDBRANCH  61  62
ENDBRANCH  60  61
ENDBRANCH  57  60
ENDBRANCH  54  57
ENDBRANCH  51  53
ENDBRANCH  49  51
ENDBRANCH  46  47
BRANCH  46  65
ATOM     65  CB  LEU A   7      -2.852 -11.885   9.646  0.00  0.00    +0.029 C 
BRANCH  65  66
ATOM     66  CG  LEU A   7      -1.457 -12.175   9.091  0.00  0.00    +0.002 C 
ATOM     67  CD2 LEU A   7      -0.420 -11.414   9.906  0.00  0.00    +0.000 C 
ATOM     68  CD1 LEU A   7      -1.344 -11.803   7.620  0.00  0.00    +0.000 C 
ENDBRANCH  65  66
ENDBRANCH  46  65
ENDBRANCH  43  46
ENDBRANCH  41  42
BRANCH  41  69
ATOM     69  CB  ILE A   6      -8.618 -12.484   9.780  0.00  0.00    +0.027 C 
ATOM     70  CG2 ILE A   6      -8.108 -13.907   9.674  0.00  0.00    +0.002 C 
BRANCH  69  71
ATOM     71  CG1 ILE A   6      -9.741 -12.418  10.825  0.00  0.00    +0.002 C 
ATOM     72  CD1 ILE A   6     -11.053 -12.158  10.245  0.00  0.00    +0.000 C 
ENDBRANCH  69  71
ENDBRANCH  41  69
ENDBRANCH  39  41
ENDBRANCH   1  37
TORSDOF 32
REMARK  Name = ../refined-set-2016/4xu1/4xu1_pocket.pdb
REMARK  241 active torsions:
REMARK  status: ('A' for Active; 'I' for Inactive)
REMARK    1  A    between atoms: _1  and  _3
REMARK    2  A    between atoms: _3  and  _4
REMARK    3  A    between atoms: _3  and  _6
REMARK    4  A    between atoms: _6  and  _7
REMARK    5  A    between atoms: _10  and  _12
REMARK    6  A    between atoms: _12  and  _13
REMARK    7  A    between atoms: _15  and  _17
REMARK    8  A    between atoms: _17  and  _18
REMARK    9  A    between atoms: _17  and  _20
REMARK   10  A    between atoms: _20  and  _21
REMARK   11  A    between atoms: _23  and  _25
REMARK   12  A    between atoms: _25  and  _26
REMARK   13  A    between atoms: _25  and  _28
REMARK   14  A    between atoms: _28  and  _29
REMARK   15  A    between atoms: _32  and  _34
REMARK   16  A    between atoms: _34  and  _35
REMARK   17  A    between atoms: _34  and  _37
REMARK   18  A    between atoms: _37  and  _38
REMARK   19  A    between atoms: _43  and  _45
REMARK   20  A    between atoms: _45  and  _46
REMARK   21  A    between atoms: _49  and  _51
REMARK   22  A    between atoms: _51  and  _52
REMARK   23  A    between atoms: _51  and  _54
REMARK   24  A    between atoms: _54  and  _55
REMARK   25  A    between atoms: _58  and  _60
REMARK   26  A    between atoms: _60  and  _61
REMARK   27  A    between atoms: _60  and  _63
REMARK   28  A    between atoms: _63  and  _64
REMARK   29  A    between atoms: _67  and  _69
REMARK   30  A    between atoms: _69  and  _70
REMARK   31  A    between atoms: _69  and  _72
REMARK   32  A    between atoms: _72  and  _73
REMARK   33  A    between atoms: _76  and  _78
REMARK   34  A    between atoms: _78  and  _79
REMARK   35  A    between atoms: _78  and  _81
REMARK   36  A    between atoms: _81  and  _82
REMARK   37  A    between atoms: _85  and  _87
REMARK   38  A    between atoms: _87  and  _88
REMARK   39  A    between atoms: _91  and  _93
REMARK   40  A    between atoms: _93  and  _94
REMARK   41  A    between atoms: _93  and  _96
REMARK   42  A    between atoms: _96  and  _97
REMARK   43  A    between atoms: _97  and  _98
REMARK   44  A    between atoms: _103  and  _105
REMARK   45  A    between atoms: _105  and  _106
REMARK   46  A    between atoms: _105  and  _108
REMARK   47  A    between atoms: _108  and  _109
REMARK   48  A    between atoms: _112  and  _114
REMARK   49  A    between atoms: _114  and  _115
REMARK   50  A    between atoms: _118  and  _120
REMARK   51  A    between atoms: _120  and  _121
REMARK   52  A    between atoms: _123  and  _125
REMARK   53  A    between atoms: _125  and  _126
REMARK   54  A    between atoms: _125  and  _128
REMARK   55  A    between atoms: _128  and  _129
REMARK   56  A    between atoms: _129  and  _130
REMARK   57  A    between atoms: _130  and  _131
REMARK   58  A    between atoms: _140  and  _142
REMARK   59  A    between atoms: _142  and  _143
REMARK   60  A    between atoms: _145  and  _147
REMARK   61  A    between atoms: _147  and  _148
REMARK   62  A    between atoms: _147  and  _150
REMARK   63  A    between atoms: _150  and  _151
REMARK   64  A    between atoms: _151  and  _152
REMARK   65  A    between atoms: _152  and  _153
REMARK   66  A    between atoms: _162  and  _164
REMARK   67  A    between atoms: _164  and  _165
REMARK   68  A    between atoms: _164  and  _167
REMARK   69  A    between atoms: _167  and  _168
REMARK   70  A    between atoms: _173  and  _175
REMARK   71  A    between atoms: _175  and  _176
REMARK   72  A    between atoms: _178  and  _180
REMARK   73  A    between atoms: _180  and  _181
REMARK   74  A    between atoms: _180  and  _183
REMARK   75  A    between atoms: _183  and  _184
REMARK   76  A    between atoms: _184  and  _185
REMARK   77  A    between atoms: _185  and  _186
REMARK   78  A    between atoms: _195  and  _197
REMARK   79  A    between atoms: _197  and  _198
REMARK   80  A    between atoms: _200  and  _202
REMARK   81  A    between atoms: _202  and  _203
REMARK   82  A    between atoms: _202  and  _205
REMARK   83  A    between atoms: _205  and  _206
REMARK   84  A    between atoms: _216  and  _218
REMARK   85  A    between atoms: _218  and  _219
REMARK   86  A    between atoms: _222  and  _224
REMARK   87  A    between atoms: _224  and  _225
REMARK   88  A    between atoms: _228  and  _230
REMARK   89  A    between atoms: _230  and  _231
REMARK   90  A    between atoms: _230  and  _233
REMARK   91  A    between atoms: _233  and  _234
REMARK   92  A    between atoms: _237  and  _239
REMARK   93  A    between atoms: _239  and  _240
REMARK   94  A    between atoms: _243  and  _245
REMARK   95  A    between atoms: _245  and  _246
REMARK   96  A    between atoms: _245  and  _248
REMARK   97  A    between atoms: _248  and  _249
REMARK   98  A    between atoms: _249  and  _250
REMARK   99  A    between atoms: _255  and  _257
REMARK  100  A    between atoms: _257  and  _258
REMARK  101  A    between atoms: _257  and  _260
REMARK  102  A    between atoms: _260  and  _261
REMARK  103  A    between atoms: _264  and  _266
REMARK  104  A    between atoms: _266  and  _267
REMARK  105  A    between atoms: _266  and  _269
REMARK  106  A    between atoms: _269  and  _270
REMARK  107  A    between atoms: _273  and  _275
REMARK  108  A    between atoms: _275  and  _276
REMARK  109  A    between atoms: _275  and  _278
REMARK  110  A    between atoms: _278  and  _279
REMARK  111  A    between atoms: _282  and  _284
REMARK  112  A    between atoms: _284  and  _285
REMARK  113  A    between atoms: _284  and  _287
REMARK  114  A    between atoms: _287  and  _288
REMARK  115  A    between atoms: _290  and  _292
REMARK  116  A    between atoms: _292  and  _293
REMARK  117  A    between atoms: _292  and  _295
REMARK  118  A    between atoms: _298  and  _300
REMARK  119  A    between atoms: _300  and  _301
REMARK  120  A    between atoms: _300  and  _303
REMARK  121  A    between atoms: _303  and  _304
REMARK  122  A    between atoms: _304  and  _305
REMARK  123  A    between atoms: _305  and  _306
REMARK  124  A    between atoms: _306  and  _307
REMARK  125  A    between atoms: _311  and  _313
REMARK  126  A    between atoms: _313  and  _314
REMARK  127  A    between atoms: _313  and  _316
REMARK  128  A    between atoms: _316  and  _317
REMARK  129  A    between atoms: _328  and  _329
REMARK  130  A    between atoms: _334  and  _336
REMARK  131  A    between atoms: _336  and  _337
REMARK  132  A    between atoms: _336  and  _339
REMARK  133  A    between atoms: _339  and  _340
REMARK  134  A    between atoms: _345  and  _347
REMARK  135  A    between atoms: _347  and  _348
REMARK  136  A    between atoms: _347  and  _350
REMARK  137  A    between atoms: _350  and  _351
REMARK  138  A    between atoms: _354  and  _356
REMARK  139  A    between atoms: _356  and  _357
REMARK  140  A    between atoms: _356  and  _359
REMARK  141  A    between atoms: _362  and  _364
REMARK  142  A    between atoms: _364  and  _365
REMARK  143  A    between atoms: _367  and  _369
REMARK  144  A    between atoms: _369  and  _370
REMARK  145  A    between atoms: _369  and  _372
REMARK  146  A    between atoms: _372  and  _373
REMARK  147  A    between atoms: _373  and  _374
REMARK  148  A    between atoms: _374  and  _375
REMARK  149  A    between atoms: _375  and  _376
REMARK  150  A    between atoms: _380  and  _382
REMARK  151  A    between atoms: _382  and  _383
REMARK  152  A    between atoms: _382  and  _385
REMARK  153  A    between atoms: _385  and  _386
REMARK  154  A    between atoms: _389  and  _391
REMARK  155  A    between atoms: _391  and  _392
REMARK  156  A    between atoms: _395  and  _397
REMARK  157  A    between atoms: _397  and  _398
REMARK  158  A    between atoms: _400  and  _402
REMARK  159  A    between atoms: _402  and  _403
REMARK  160  A    between atoms: _402  and  _405
REMARK  161  A    between atoms: _405  and  _406
REMARK  162  A    between atoms: _409  and  _411
REMARK  163  A    between atoms: _411  and  _412
REMARK  164  A    between atoms: _411  and  _414
REMARK  165  A    between atoms: _414  and  _415
REMARK  166  A    between atoms: _418  and  _420
REMARK  167  A    between atoms: _420  and  _421
REMARK  168  A    between atoms: _424  and  _426
REMARK  169  A    between atoms: _426  and  _427
REMARK  170  A    between atoms: _426  and  _429
REMARK  171  A    between atoms: _429  and  _430
REMARK  172  A    between atoms: _430  and  _431
REMARK  173  A    between atoms: _434  and  _436
REMARK  174  A    between atoms: _436  and  _437
REMARK  175  A    between atoms: _436  and  _439
REMARK  176  A    between atoms: _442  and  _444
REMARK  177  A    between atoms: _444  and  _445
REMARK  178  A    between atoms: _444  and  _447
REMARK  179  A    between atoms: _447  and  _448
REMARK  180  A    between atoms: _451  and  _453
REMARK  181  A    between atoms: _453  and  _454
REMARK  182  A    between atoms: _456  and  _458
REMARK  183  A    between atoms: _458  and  _459
REMARK  184  A    between atoms: _458  and  _461
REMARK  185  A    between atoms: _464  and  _466
REMARK  186  A    between atoms: _466  and  _467
REMARK  187  A    between atoms: _469  and  _471
REMARK  188  A    between atoms: _471  and  _472
REMARK  189  A    between atoms: _471  and  _474
REMARK  190  A    between atoms: _474  and  _475
REMARK  191  A    between atoms: _478  and  _480
REMARK  192  A    between atoms: _480  and  _481
REMARK  193  A    between atoms: _480  and  _483
REMARK  194  A    between atoms: _483  and  _484
REMARK  195  A    between atoms: _489  and  _491
REMARK  196  A    between atoms: _491  and  _492
REMARK  197  A    between atoms: _491  and  _494
REMARK  198  A    between atoms: _497  and  _499
REMARK  199  A    between atoms: _499  and  _500
REMARK  200  A    between atoms: _499  and  _502
REMARK  201  A    between atoms: _502  and  _503
REMARK  202  A    between atoms: _503  and  _504
REMARK  203  A    between atoms: _509  and  _511
REMARK  204  A    between atoms: _511  and  _512
REMARK  205  A    between atoms: _516  and  _517
REMARK  206  A    between atoms: _522  and  _524
REMARK  207  A    between atoms: _524  and  _525
REMARK  208  A    between atoms: _524  and  _527
REMARK  209  A    between atoms: _527  and  _528
REMARK  210  A    between atoms: _528  and  _529
REMARK  211  A    between atoms: _532  and  _534
REMARK  212  A    between atoms: _534  and  _535
REMARK  213  A    between atoms: _534  and  _537
REMARK  214  A    between atoms: _540  and  _542
REMARK  215  A    between atoms: _542  and  _543
REMARK  216  A    between atoms: _542  and  _545
REMARK  217  A    between atoms: _545  and  _546
REMARK  218  A    between atoms: _550  and  _551
REMARK  219  A    between atoms: _556  and  _558
REMARK  220  A    between atoms: _558  and  _559
REMARK  221  A    between atoms: _558  and  _561
REMARK  222  A    between atoms: _561  and  _562
REMARK  223  A    between atoms: _565  and  _567
REMARK  224  A    between atoms: _567  and  _568
REMARK  225  A    between atoms: _571  and  _573
REMARK  226  A    between atoms: _573  and  _574
REMARK  227  A    between atoms: _573  and  _576
REMARK  228  A    between atoms: _576  and  _577
REMARK  229  A    between atoms: _580  and  _582
REMARK  230  A    between atoms: _582  and  _583
REMARK  231  A    between atoms: _582  and  _585
REMARK  232  A    between atoms: _585  and  _586
REMARK  233  A    between atoms: _588  and  _590
REMARK  234  A    between atoms: _590  and  _591
REMARK  235  A    between atoms: _593  and  _595
REMARK  236  A    between atoms: _595  and  _596
REMARK  237  A    between atoms: _595  and  _598
REMARK  238  A    between atoms: _598  and  _599
REMARK  239  A    between atoms: _602  and  _604
REMARK  240  A    between atoms: _604  and  _605
REMARK  241  A    between atoms: _604  and  _607
REMARK                            x       y       z     vdW  Elec       q    Type
REMARK                         _______ _______ _______ _____ _____    ______ ____
ROOT
ATOM      1  C   VAL A   4      -7.223 -10.989  15.682  0.00  0.00    +0.241 C 
ATOM      2  O   VAL A   4      -6.834 -11.142  16.837  0.00  0.00    -0.273 OA
ATOM      3  N   GLY A   5      -7.468  -9.796  15.150  0.00  0.00    -0.295 N 
ATOM      4  H   GLY A   5      -7.649  -9.711  14.129  0.00  0.00    +0.150 HD
ENDROOT
BRANCH   3   5
ATOM      5  CA  GLY A   5      -7.484  -8.610  15.988  0.00  0.00    +0.176 C 
BRANCH   5   6
ATOM      6  C   GLY A   5      -8.897  -8.059  15.949  0.00  0.00    +0.243 C 
ATOM      7  N   LEU A   6      -9.609  -8.125  17.069  0.00  0.00    -0.297 N 
ATOM      8  H   LEU A   6      -9.162  -8.495  17.932  0.00  0.00    +0.150 HD
ATOM      9  O   GLY A   5      -9.334  -7.608  14.903  0.00  0.00    -0.273 OA
BRANCH   7  10
ATOM     10  CA  LEU A   6     -11.009  -7.690  17.121  0.00  0.00    +0.149 C 
BRANCH  10  11
ATOM     11  C   LEU A   6     -11.155  -6.483  18.037  0.00  0.00    +0.241 C 
ATOM     12  O   LEU A   6     -10.872  -6.583  19.225  0.00  0.00    -0.273 OA
ATOM     13  N   ASN A   7     -11.604  -5.348  17.491  0.00  0.00    -0.297 N 
ATOM     14  H   ASN A   7     -11.841  -5.324  16.479  0.00  0.00    +0.150 HD
BRANCH  13  15
ATOM     15  CA  ASN A   7     -11.766  -4.142  18.297  0.00  0.00    +0.158 C 
BRANCH  15  16
ATOM     16  C   ASN A   7     -12.988  -4.216  19.202  0.00  0.00    +0.241 C 
ATOM     17  N   VAL A   8     -12.756  -4.261  20.514  0.00  0.00    -0.298 N 
ATOM     18  H   VAL A   8     -11.782  -4.172  20.867  0.00  0.00    +0.150 HD
ATOM     19  O   ASN A   7     -14.124  -4.234  18.719  0.00  0.00    -0.273 OA
BRANCH  17  20
ATOM     20  CA  VAL A   8     -13.846  -4.433  21.456  0.00  0.00    +0.137 C 
BRANCH  20  21
ATOM     21  CB  VAL A   8     -13.488  -5.415  22.585  0.00  0.00    +0.026 C 
ATOM     22  CG2 VAL A   8     -14.642  -5.552  23.586  0.00  0.00    +0.002 C 
ATOM     23  CG1 VAL A   8     -13.193  -6.773  21.981  0.00  0.00    +0.002 C 
ENDBRANCH  20  21
BRANCH  20  24
ATOM     24  C   VAL A   8     -14.226  -3.070  22.023  0.00  0.00    +0.227 C 
ATOM     25  O   VAL A   8     -15.361  -2.647  21.887  0.00  0.00    -0.286 OA
ENDBRANCH  20  24
ENDBRANCH  17  20
ENDBRANCH  15  16
BRANCH  15  26
ATOM     26  CB  ASN A   7     -11.859  -2.924  17.388  0.00  0.00    +0.114 C 
BRANCH  26  27
ATOM     27  CG  ASN A   7     -10.605  -2.722  16.566  0.00  0.00    +0.222 C 
ATOM     28  OD1 ASN A   7      -9.493  -2.798  17.089  0.00  0.00    -0.275 OA
ATOM     29  ND2 ASN A   7     -10.771  -2.442  15.277  0.00  0.00    -0.329 N 
ATOM     30 HD21 ASN A   7     -11.729  -2.387  14.876  0.00  0.00    +0.145 HD
ATOM     31 HD22 ASN A   7      -9.943  -2.277  14.670  0.00  0.00    +0.145 HD
ENDBRANCH  26  27
ENDBRANCH  15  26
ENDBRANCH  13  15
ENDBRANCH  10  11
BRANCH  10  32
ATOM     32  CB  LEU A   6     -11.904  -8.837  17.608  0.00  0.00    +0.029 C 
BRANCH  32  33
ATOM     33  CG  LEU A   6     -13.335  -8.498  18.068  0.00  0.00    +0.002 C 
ATOM     34  CD2 LEU A   6     -14.018  -9.691  18.715  0.00  0.00    +0.000 C 
ATOM     35  CD1 LEU A   6     -14.194  -7.953  16.905  0.00  0.00    +0.000 C 
ENDBRANCH  32  33
ENDBRANCH  10  32
ENDBRANCH   7  10
ENDBRANCH   5   6
ENDBRANCH   3   5
BRANCH   1  36
ATOM     36  CA  VAL A   4      -7.463 -12.190  14.800  0.00  0.00    +0.149 C 
BRANCH  36  38
ATOM     37  C   GLY A   3      -5.689 -13.415  13.661  0.00  0.00    +0.243 C 
ATOM     38  N   VAL A   4      -6.264 -13.022  14.792  0.00  0.00    -0.297 N 
ATOM     39  H   VAL A   4      -5.848 -13.316  15.699  0.00  0.00    +0.150 HD
ATOM     40  O   GLY A   3      -6.084 -13.074  12.554  0.00  0.00    -0.273 OA
BRANCH  37  41
ATOM     41  CA  GLY A   3      -4.484 -14.320  13.800  0.00  0.00    +0.176 C 
BRANCH  41  44
ATOM     42  C   LEU A   2      -4.612 -16.670  13.246  0.00  0.00    +0.241 C 
ATOM     43  O   LEU A   2      -4.722 -16.996  14.418  0.00  0.00    -0.273 OA
ATOM     44  N   GLY A   3      -4.529 -15.407  12.842  0.00  0.00    -0.295 N 
ATOM     45  H   GLY A   3      -4.496 -15.195  11.824  0.00  0.00    +0.150 HD
BRANCH  42  46
ATOM     46  CA  LEU A   2      -4.618 -17.729  12.175  0.00  0.00    +0.149 C 
BRANCH  46  48
ATOM     47  C   VAL A   1      -2.429 -18.686  11.778  0.00  0.00    +0.238 C 
ATOM     48  N   LEU A   2      -3.570 -18.698  12.458  0.00  0.00    -0.297 N 
ATOM     49  H   LEU A   2      -3.716 -19.409  13.202  0.00  0.00    +0.150 HD
ATOM     50  O   VAL A   1      -2.225 -17.918  10.841  0.00  0.00    -0.274 OA
BRANCH  47  51
ATOM     51  CA  VAL A   1      -1.401 -19.730  12.172  0.00  0.00    +0.145 C 
BRANCH  51  52
ATOM     52  CB  VAL A   1      -0.138 -19.087  12.771  0.00  0.00    +0.025 C 
ATOM     53  CG2 VAL A   1      -0.484 -18.103  13.903  0.00  0.00    +0.002 C 
ATOM     54  CG1 VAL A   1       0.793 -20.182  13.274  0.00  0.00    +0.002 C 
ENDBRANCH  51  52
BRANCH  51  55
ATOM     55  N   VAL A   1      -1.077 -20.507  10.988  0.00  0.00    -0.238 NA
ATOM     56  H   VAL A   1      -0.431 -20.100  10.282  0.00  0.00    +0.142 HD
ENDBRANCH  51  55
ENDBRANCH  47  51
ENDBRANCH  46  48
BRANCH  46  57
ATOM     57  CB  LEU A   2      -5.997 -18.390  12.133  0.00  0.00    +0.029 C 
BRANCH  57  58
ATOM     58  CG  LEU A   2      -6.269 -19.349  10.986  0.00  0.00    +0.002 C 
ATOM     59  CD2 LEU A   2      -7.575 -20.075  11.275  0.00  0.00    +0.000 C 
ATOM     60  CD1 LEU A   2      -6.335 -18.589   9.664  0.00  0.00    +0.000 C 
ENDBRANCH  57  58
ENDBRANCH  46  57
ENDBRANCH  42  46
ENDBRANCH  41  44
ENDBRANCH  37  41
ENDBRANCH  36  38
BRANCH  36  61
ATOM     61  CB  VAL A   4      -8.691 -12.953  15.336  0.00  0.00    +0.027 C 
ATOM     62  CG2 VAL A   4      -9.903 -12.013  15.489  0.00  0.00    +0.002 C 
ATOM     63  CG1 VAL A   4      -9.019 -14.151  14.451  0.00  0.00    +0.002 C 
ENDBRANCH  36  61
ENDBRANCH   1  36
TORSDOF 25
REMARK  Name = ../refined-set-2016/4xu1/4xu1_pocket.pdb
REMARK  241 active torsions:
REMARK  status: ('A' for Active; 'I' for Inactive)
REMARK    1  A    between atoms: _1  and  _3
REMARK    2  A    between atoms: _3  and  _4
REMARK    3  A    between atoms: _3  and  _6
REMARK    4  A    between atoms: _6  and  _7
REMARK    5  A    between atoms: _10  and  _12
REMARK    6  A    between atoms: _12  and  _13
REMARK    7  A    between atoms: _15  and  _17
REMARK    8  A    between atoms: _17  and  _18
REMARK    9  A    between atoms: _17  and  _20
REMARK   10  A    between atoms: _20  and  _21
REMARK   11  A    between atoms: _23  and  _25
REMARK   12  A    between atoms: _25  and  _26
REMARK   13  A    between atoms: _25  and  _28
REMARK   14  A    between atoms: _28  and  _29
REMARK   15  A    between atoms: _32  and  _34
REMARK   16  A    between atoms: _34  and  _35
REMARK   17  A    between atoms: _34  and  _37
REMARK   18  A    between atoms: _37  and  _38
REMARK   19  A    between atoms: _43  and  _45
REMARK   20  A    between atoms: _45  and  _46
REMARK   21  A    between atoms: _49  and  _51
REMARK   22  A    between atoms: _51  and  _52
REMARK   23  A    between atoms: _51  and  _54
REMARK   24  A    between atoms: _54  and  _55
REMARK   25  A    between atoms: _58  and  _60
REMARK   26  A    between atoms: _60  and  _61
REMARK   27  A    between atoms: _60  and  _63
REMARK   28  A    between atoms: _63  and  _64
REMARK   29  A    between atoms: _67  and  _69
REMARK   30  A    between atoms: _69  and  _70
REMARK   31  A    between atoms: _69  and  _72
REMARK   32  A    between atoms: _72  and  _73
REMARK   33  A    between atoms: _76  and  _78
REMARK   34  A    between atoms: _78  and  _79
REMARK   35  A    between atoms: _78  and  _81
REMARK   36  A    between atoms: _81  and  _82
REMARK   37  A    between atoms: _85  and  _87
REMARK   38  A    between atoms: _87  and  _88
REMARK   39  A    between atoms: _91  and  _93
REMARK   40  A    between atoms: _93  and  _94
REMARK   41  A    between atoms: _93  and  _96
REMARK   42  A    between atoms: _96  and  _97
REMARK   43  A    between atoms: _97  and  _98
REMARK   44  A    between atoms: _103  and  _105
REMARK   45  A    between atoms: _105  and  _106
REMARK   46  A    between atoms: _105  and  _108
REMARK   47  A    between atoms: _108  and  _109
REMARK   48  A    between atoms: _112  and  _114
REMARK   49  A    between atoms: _114  and  _115
REMARK   50  A    between atoms: _118  and  _120
REMARK   51  A    between atoms: _120  and  _121
REMARK   52  A    between atoms: _123  and  _125
REMARK   53  A    between atoms: _125  and  _126
REMARK   54  A    between atoms: _125  and  _128
REMARK   55  A    between atoms: _128  and  _129
REMARK   56  A    between atoms: _129  and  _130
REMARK   57  A    between atoms: _130  and  _131
REMARK   58  A    between atoms: _140  and  _142
REMARK   59  A    between atoms: _142  and  _143
REMARK   60  A    between atoms: _145  and  _147
REMARK   61  A    between atoms: _147  and  _148
REMARK   62  A    between atoms: _147  and  _150
REMARK   63  A    between atoms: _150  and  _151
REMARK   64  A    between atoms: _151  and  _152
REMARK   65  A    between atoms: _152  and  _153
REMARK   66  A    between atoms: _162  and  _164
REMARK   67  A    between atoms: _164  and  _165
REMARK   68  A    between atoms: _164  and  _167
REMARK   69  A    between atoms: _167  and  _168
REMARK   70  A    between atoms: _173  and  _175
REMARK   71  A    between atoms: _175  and  _176
REMARK   72  A    between atoms: _178  and  _180
REMARK   73  A    between atoms: _180  and  _181
REMARK   74  A    between atoms: _180  and  _183
REMARK   75  A    between atoms: _183  and  _184
REMARK   76  A    between atoms: _184  and  _185
REMARK   77  A    between atoms: _185  and  _186
REMARK   78  A    between atoms: _195  and  _197
REMARK   79  A    between atoms: _197  and  _198
REMARK   80  A    between atoms: _200  and  _202
REMARK   81  A    between atoms: _202  and  _203
REMARK   82  A    between atoms: _202  and  _205
REMARK   83  A    between atoms: _205  and  _206
REMARK   84  A    between atoms: _216  and  _218
REMARK   85  A    between atoms: _218  and  _219
REMARK   86  A    between atoms: _222  and  _224
REMARK   87  A    between atoms: _224  and  _225
REMARK   88  A    between atoms: _228  and  _230
REMARK   89  A    between atoms: _230  and  _231
REMARK   90  A    between atoms: _230  and  _233
REMARK   91  A    between atoms: _233  and  _234
REMARK   92  A    between atoms: _237  and  _239
REMARK   93  A    between atoms: _239  and  _240
REMARK   94  A    between atoms: _243  and  _245
REMARK   95  A    between atoms: _245  and  _246
REMARK   96  A    between atoms: _245  and  _248
REMARK   97  A    between atoms: _248  and  _249
REMARK   98  A    between atoms: _249  and  _250
REMARK   99  A    between atoms: _255  and  _257
REMARK  100  A    between atoms: _257  and  _258
REMARK  101  A    between atoms: _257  and  _260
REMARK  102  A    between atoms: _260  and  _261
REMARK  103  A    between atoms: _264  and  _266
REMARK  104  A    between atoms: _266  and  _267
REMARK  105  A    between atoms: _266  and  _269
REMARK  106  A    between atoms: _269  and  _270
REMARK  107  A    between atoms: _273  and  _275
REMARK  108  A    between atoms: _275  and  _276
REMARK  109  A    between atoms: _275  and  _278
REMARK  110  A    between atoms: _278  and  _279
REMARK  111  A    between atoms: _282  and  _284
REMARK  112  A    between atoms: _284  and  _285
REMARK  113  A    between atoms: _284  and  _287
REMARK  114  A    between atoms: _287  and  _288
REMARK  115  A    between atoms: _290  and  _292
REMARK  116  A    between atoms: _292  and  _293
REMARK  117  A    between atoms: _292  and  _295
REMARK  118  A    between atoms: _298  and  _300
REMARK  119  A    between atoms: _300  and  _301
REMARK  120  A    between atoms: _300  and  _303
REMARK  121  A    between atoms: _303  and  _304
REMARK  122  A    between atoms: _304  and  _305
REMARK  123  A    between atoms: _305  and  _306
REMARK  124  A    between atoms: _306  and  _307
REMARK  125  A    between atoms: _311  and  _313
REMARK  126  A    between atoms: _313  and  _314
REMARK  127  A    between atoms: _313  and  _316
REMARK  128  A    between atoms: _316  and  _317
REMARK  129  A    between atoms: _328  and  _329
REMARK  130  A    between atoms: _334  and  _336
REMARK  131  A    between atoms: _336  and  _337
REMARK  132  A    between atoms: _336  and  _339
REMARK  133  A    between atoms: _339  and  _340
REMARK  134  A    between atoms: _345  and  _347
REMARK  135  A    between atoms: _347  and  _348
REMARK  136  A    between atoms: _347  and  _350
REMARK  137  A    between atoms: _350  and  _351
REMARK  138  A    between atoms: _354  and  _356
REMARK  139  A    between atoms: _356  and  _357
REMARK  140  A    between atoms: _356  and  _359
REMARK  141  A    between atoms: _362  and  _364
REMARK  142  A    between atoms: _364  and  _365
REMARK  143  A    between atoms: _367  and  _369
REMARK  144  A    between atoms: _369  and  _370
REMARK  145  A    between atoms: _369  and  _372
REMARK  146  A    between atoms: _372  and  _373
REMARK  147  A    between atoms: _373  and  _374
REMARK  148  A    between atoms: _374  and  _375
REMARK  149  A    between atoms: _375  and  _376
REMARK  150  A    between atoms: _380  and  _382
REMARK  151  A    between atoms: _382  and  _383
REMARK  152  A    between atoms: _382  and  _385
REMARK  153  A    between atoms: _385  and  _386
REMARK  154  A    between atoms: _389  and  _391
REMARK  155  A    between atoms: _391  and  _392
REMARK  156  A    between atoms: _395  and  _397
REMARK  157  A    between atoms: _397  and  _398
REMARK  158  A    between atoms: _400  and  _402
REMARK  159  A    between atoms: _402  and  _403
REMARK  160  A    between atoms: _402  and  _405
REMARK  161  A    between atoms: _405  and  _406
REMARK  162  A    between atoms: _409  and  _411
REMARK  163  A    between atoms: _411  and  _412
REMARK  164  A    between atoms: _411  and  _414
REMARK  165  A    between atoms: _414  and  _415
REMARK  166  A    between atoms: _418  and  _420
REMARK  167  A    between atoms: _420  and  _421
REMARK  168  A    between atoms: _424  and  _426
REMARK  169  A    between atoms: _426  and  _427
REMARK  170  A    between atoms: _426  and  _429
REMARK  171  A    between atoms: _429  and  _430
REMARK  172  A    between atoms: _430  and  _431
REMARK  173  A    between atoms: _434  and  _436
REMARK  174  A    between atoms: _436  and  _437
REMARK  175  A    between atoms: _436  and  _439
REMARK  176  A    between atoms: _442  and  _444
REMARK  177  A    between atoms: _444  and  _445
REMARK  178  A    between atoms: _444  and  _447
REMARK  179  A    between atoms: _447  and  _448
REMARK  180  A    between atoms: _451  and  _453
REMARK  181  A    between atoms: _453  and  _454
REMARK  182  A    between atoms: _456  and  _458
REMARK  183  A    between atoms: _458  and  _459
REMARK  184  A    between atoms: _458  and  _461
REMARK  185  A    between atoms: _464  and  _466
REMARK  186  A    between atoms: _466  and  _467
REMARK  187  A    between atoms: _469  and  _471
REMARK  188  A    between atoms: _471  and  _472
REMARK  189  A    between atoms: _471  and  _474
REMARK  190  A    between atoms: _474  and  _475
REMARK  191  A    between atoms: _478  and  _480
REMARK  192  A    between atoms: _480  and  _481
REMARK  193  A    between atoms: _480  and  _483
REMARK  194  A    between atoms: _483  and  _484
REMARK  195  A    between atoms: _489  and  _491
REMARK  196  A    between atoms: _491  and  _492
REMARK  197  A    between atoms: _491  and  _494
REMARK  198  A    between atoms: _497  and  _499
REMARK  199  A    between atoms: _499  and  _500
REMARK  200  A    between atoms: _499  and  _502
REMARK  201  A    between atoms: _502  and  _503
REMARK  202  A    between atoms: _503  and  _504
REMARK  203  A    between atoms: _509  and  _511
REMARK  204  A    between atoms: _511  and  _512
REMARK  205  A    between atoms: _516  and  _517
REMARK  206  A    between atoms: _522  and  _524
REMARK  207  A    between atoms: _524  and  _525
REMARK  208  A    between atoms: _524  and  _527
REMARK  209  A    between atoms: _527  and  _528
REMARK  210  A    between atoms: _528  and  _529
REMARK  211  A    between atoms: _532  and  _534
REMARK  212  A    between atoms: _534  and  _535
REMARK  213  A    between atoms: _534  and  _537
REMARK  214  A    between atoms: _540  and  _542
REMARK  215  A    between atoms: _542  and  _543
REMARK  216  A    between atoms: _542  and  _545
REMARK  217  A    between atoms: _545  and  _546
REMARK  218  A    between atoms: _550  and  _551
REMARK  219  A    between atoms: _556  and  _558
REMARK  220  A    between atoms: _558  and  _559
REMARK  221  A    between atoms: _558  and  _561
REMARK  222  A    between atoms: _561  and  _562
REMARK  223  A    between atoms: _565  and  _567
REMARK  224  A    between atoms: _567  and  _568
REMARK  225  A    between atoms: _571  and  _573
REMARK  226  A    between atoms: _573  and  _574
REMARK  227  A    between atoms: _573  and  _576
REMARK  228  A    between atoms: _576  and  _577
REMARK  229  A    between atoms: _580  and  _582
REMARK  230  A    between atoms: _582  and  _583
REMARK  231  A    between atoms: _582  and  _585
REMARK  232  A    between atoms: _585  and  _586
REMARK  233  A    between atoms: _588  and  _590
REMARK  234  A    between atoms: _590  and  _591
REMARK  235  A    between atoms: _593  and  _595
REMARK  236  A    between atoms: _595  and  _596
REMARK  237  A    between atoms: _595  and  _598
REMARK  238  A    between atoms: _598  and  _599
REMARK  239  A    between atoms: _602  and  _604
REMARK  240  A    between atoms: _604  and  _605
REMARK  241  A    between atoms: _604  and  _607
REMARK                            x       y       z     vdW  Elec       q    Type
REMARK                         _______ _______ _______ _____ _____    ______ ____
ROOT
ATOM      1  C   GLN A   1     -11.181   1.433  20.180  0.00  0.00    +0.238 C 
ATOM      2  N   ALA A   2     -10.633   2.596  20.525  0.00  0.00    -0.297 N 
ATOM      3  H   ALA A   2      -9.918   2.624  21.280  0.00  0.00    +0.150 HD
ATOM      4  O   GLN A   1     -12.067   1.353  19.345  0.00  0.00    -0.274 OA
ENDROOT
BRANCH   2   5
ATOM      5  CA  ALA A   2     -11.023   3.831  19.857  0.00  0.00    +0.149 C 
ATOM      6  CB  ALA A   2     -10.697   5.044  20.738  0.00  0.00    +0.031 C 
BRANCH   5   7
ATOM      7  C   ALA A   2     -10.342   3.961  18.493  0.00  0.00    +0.244 C 
ATOM      8  O   ALA A   2      -9.151   3.722  18.356  0.00  0.00    -0.273 OA
ATOM      9  N   PRO A   3     -11.104   4.361  17.473  0.00  0.00    -0.273 N 
ATOM     10  CD  PRO A   3     -12.567   4.540  17.471  0.00  0.00    +0.094 C 
ATOM     11  CG  PRO A   3     -12.898   4.578  16.011  0.00  0.00    +0.024 C 
ATOM     12  CB  PRO A   3     -11.689   5.143  15.345  0.00  0.00    +0.030 C 
ATOM     13  CA  PRO A   3     -10.523   4.547  16.142  0.00  0.00    +0.140 C 
BRANCH  13  14
ATOM     14  C   PRO A   3      -9.292   5.473  16.101  0.00  0.00    +0.227 C 
ATOM     15  O   PRO A   3      -8.324   5.154  15.409  0.00  0.00    -0.286 OA
ENDBRANCH  13  14
ENDBRANCH   5   7
ENDBRANCH   2   5
BRANCH   1  16
ATOM     16  CA  GLN A   1     -10.644   0.177  20.868  0.00  0.00    +0.145 C 
BRANCH  16  17
ATOM     17  N   GLN A   1     -11.662  -0.598  21.572  0.00  0.00    -0.238 NA
ATOM     18  H   GLN A   1     -11.758  -1.610  21.351  0.00  0.00    +0.142 HD
ENDBRANCH  16  17
BRANCH  16  19
ATOM     19  CB  GLN A   1      -9.962  -0.707  19.819  0.00  0.00    +0.036 C 
BRANCH  19  20
ATOM     20  CG  GLN A   1      -8.711  -0.107  19.228  0.00  0.00    +0.087 C 
BRANCH  20  21
ATOM     21  CD  GLN A   1      -7.567  -0.124  20.216  0.00  0.00    +0.219 C 
ATOM     22  NE2 GLN A   1      -7.358   1.002  20.903  0.00  0.00    -0.329 N 
ATOM     23 HE21 GLN A   1      -6.601   1.044  21.615  0.00  0.00    +0.145 HD
ATOM     24 HE22 GLN A   1      -7.952   1.837  20.726  0.00  0.00    +0.145 HD
ATOM     25  OE1 GLN A   1      -6.894  -1.143  20.385  0.00  0.00    -0.275 OA
ENDBRANCH  20  21
ENDBRANCH  19  20
ENDBRANCH  16  19
ENDBRANCH   1  16
TORSDOF 8
REMARK  Name = ../refined-set-2016/4xu1/4xu1_pocket.pdb
REMARK  241 active torsions:
REMARK  status: ('A' for Active; 'I' for Inactive)
REMARK    1  A    between atoms: _1  and  _3
REMARK    2  A    between atoms: _3  and  _4
REMARK    3  A    between atoms: _3  and  _6
REMARK    4  A    between atoms: _6  and  _7
REMARK    5  A    between atoms: _10  and  _12
REMARK    6  A    between atoms: _12  and  _13
REMARK    7  A    between atoms: _15  and  _17
REMARK    8  A    between atoms: _17  and  _18
REMARK    9  A    between atoms: _17  and  _20
REMARK   10  A    between atoms: _20  and  _21
REMARK   11  A    between atoms: _23  and  _25
REMARK   12  A    between atoms: _25  and  _26
REMARK   13  A    between atoms: _25  and  _28
REMARK   14  A    between atoms: _28  and  _29
REMARK   15  A    between atoms: _32  and  _34
REMARK   16  A    between atoms: _34  and  _35
REMARK   17  A    between atoms: _34  and  _37
REMARK   18  A    between atoms: _37  and  _38
REMARK   19  A    between atoms: _43  and  _45
REMARK   20  A    between atoms: _45  and  _46
REMARK   21  A    between atoms: _49  and  _51
REMARK   22  A    between atoms: _51  and  _52
REMARK   23  A    between atoms: _51  and  _54
REMARK   24  A    between atoms: _54  and  _55
REMARK   25  A    between atoms: _58  and  _60
REMARK   26  A    between atoms: _60  and  _61
REMARK   27  A    between atoms: _60  and  _63
REMARK   28  A    between atoms: _63  and  _64
REMARK   29  A    between atoms: _67  and  _69
REMARK   30  A    between atoms: _69  and  _70
REMARK   31  A    between atoms: _69  and  _72
REMARK   32  A    between atoms: _72  and  _73
REMARK   33  A    between atoms: _76  and  _78
REMARK   34  A    between atoms: _78  and  _79
REMARK   35  A    between atoms: _78  and  _81
REMARK   36  A    between atoms: _81  and  _82
REMARK   37  A    between atoms: _85  and  _87
REMARK   38  A    between atoms: _87  and  _88
REMARK   39  A    between atoms: _91  and  _93
REMARK   40  A    between atoms: _93  and  _94
REMARK   41  A    between atoms: _93  and  _96
REMARK   42  A    between atoms: _96  and  _97
REMARK   43  A    between atoms: _97  and  _98
REMARK   44  A    between atoms: _103  and  _105
REMARK   45  A    between atoms: _105  and  _106
REMARK   46  A    between atoms: _105  and  _108
REMARK   47  A    between atoms: _108  and  _109
REMARK   48  A    between atoms: _112  and  _114
REMARK   49  A    between atoms: _114  and  _115
REMARK   50  A    between atoms: _118  and  _120
REMARK   51  A    between atoms: _120  and  _121
REMARK   52  A    between atoms: _123  and  _125
REMARK   53  A    between atoms: _125  and  _126
REMARK   54  A    between atoms: _125  and  _128
REMARK   55  A    between atoms: _128  and  _129
REMARK   56  A    between atoms: _129  and  _130
REMARK   57  A    between atoms: _130  and  _131
REMARK   58  A    between atoms: _140  and  _142
REMARK   59  A    between atoms: _142  and  _143
REMARK   60  A    between atoms: _145  and  _147
REMARK   61  A    between atoms: _147  and  _148
REMARK   62  A    between atoms: _147  and  _150
REMARK   63  A    between atoms: _150  and  _151
REMARK   64  A    between atoms: _151  and  _152
REMARK   65  A    between atoms: _152  and  _153
REMARK   66  A    between atoms: _162  and  _164
REMARK   67  A    between atoms: _164  and  _165
REMARK   68  A    between atoms: _164  and  _167
REMARK   69  A    between atoms: _167  and  _168
REMARK   70  A    between atoms: _173  and  _175
REMARK   71  A    between atoms: _175  and  _176
REMARK   72  A    between atoms: _178  and  _180
REMARK   73  A    between atoms: _180  and  _181
REMARK   74  A    between atoms: _180  and  _183
REMARK   75  A    between atoms: _183  and  _184
REMARK   76  A    between atoms: _184  and  _185
REMARK   77  A    between atoms: _185  and  _186
REMARK   78  A    between atoms: _195  and  _197
REMARK   79  A    between atoms: _197  and  _198
REMARK   80  A    between atoms: _200  and  _202
REMARK   81  A    between atoms: _202  and  _203
REMARK   82  A    between atoms: _202  and  _205
REMARK   83  A    between atoms: _205  and  _206
REMARK   84  A    between atoms: _216  and  _218
REMARK   85  A    between atoms: _218  and  _219
REMARK   86  A    between atoms: _222  and  _224
REMARK   87  A    between atoms: _224  and  _225
REMARK   88  A    between atoms: _228  and  _230
REMARK   89  A    between atoms: _230  and  _231
REMARK   90  A    between atoms: _230  and  _233
REMARK   91  A    between atoms: _233  and  _234
REMARK   92  A    between atoms: _237  and  _239
REMARK   93  A    between atoms: _239  and  _240
REMARK   94  A    between atoms: _243  and  _245
REMARK   95  A    between atoms: _245  and  _246
REMARK   96  A    between atoms: _245  and  _248
REMARK   97  A    between atoms: _248  and  _249
REMARK   98  A    between atoms: _249  and  _250
REMARK   99  A    between atoms: _255  and  _257
REMARK  100  A    between atoms: _257  and  _258
REMARK  101  A    between atoms: _257  and  _260
REMARK  102  A    between atoms: _260  and  _261
REMARK  103  A    between atoms: _264  and  _266
REMARK  104  A    between atoms: _266  and  _267
REMARK  105  A    between atoms: _266  and  _269
REMARK  106  A    between atoms: _269  and  _270
REMARK  107  A    between atoms: _273  and  _275
REMARK  108  A    between atoms: _275  and  _276
REMARK  109  A    between atoms: _275  and  _278
REMARK  110  A    between atoms: _278  and  _279
REMARK  111  A    between atoms: _282  and  _284
REMARK  112  A    between atoms: _284  and  _285
REMARK  113  A    between atoms: _284  and  _287
REMARK  114  A    between atoms: _287  and  _288
REMARK  115  A    between atoms: _290  and  _292
REMARK  116  A    between atoms: _292  and  _293
REMARK  117  A    between atoms: _292  and  _295
REMARK  118  A    between atoms: _298  and  _300
REMARK  119  A    between atoms: _300  and  _301
REMARK  120  A    between atoms: _300  and  _303
REMARK  121  A    between atoms: _303  and  _304
REMARK  122  A    between atoms: _304  and  _305
REMARK  123  A    between atoms: _305  and  _306
REMARK  124  A    between atoms: _306  and  _307
REMARK  125  A    between atoms: _311  and  _313
REMARK  126  A    between atoms: _313  and  _314
REMARK  127  A    between atoms: _313  and  _316
REMARK  128  A    between atoms: _316  and  _317
REMARK  129  A    between atoms: _328  and  _329
REMARK  130  A    between atoms: _334  and  _336
REMARK  131  A    between atoms: _336  and  _337
REMARK  132  A    between atoms: _336  and  _339
REMARK  133  A    between atoms: _339  and  _340
REMARK  134  A    between atoms: _345  and  _347
REMARK  135  A    between atoms: _347  and  _348
REMARK  136  A    between atoms: _347  and  _350
REMARK  137  A    between atoms: _350  and  _351
REMARK  138  A    between atoms: _354  and  _356
REMARK  139  A    between atoms: _356  and  _357
REMARK  140  A    between atoms: _356  and  _359
REMARK  141  A    between atoms: _362  and  _364
REMARK  142  A    between atoms: _364  and  _365
REMARK  143  A    between atoms: _367  and  _369
REMARK  144  A    between atoms: _369  and  _370
REMARK  145  A    between atoms: _369  and  _372
REMARK  146  A    between atoms: _372  and  _373
REMARK  147  A    between atoms: _373  and  _374
REMARK  148  A    between atoms: _374  and  _375
REMARK  149  A    between atoms: _375  and  _376
REMARK  150  A    between atoms: _380  and  _382
REMARK  151  A    between atoms: _382  and  _383
REMARK  152  A    between atoms: _382  and  _385
REMARK  153  A    between atoms: _385  and  _386
REMARK  154  A    between atoms: _389  and  _391
REMARK  155  A    between atoms: _391  and  _392
REMARK  156  A    between atoms: _395  and  _397
REMARK  157  A    between atoms: _397  and  _398
REMARK  158  A    between atoms: _400  and  _402
REMARK  159  A    between atoms: _402  and  _403
REMARK  160  A    between atoms: _402  and  _405
REMARK  161  A    between atoms: _405  and  _406
REMARK  162  A    between atoms: _409  and  _411
REMARK  163  A    between atoms: _411  and  _412
REMARK  164  A    between atoms: _411  and  _414
REMARK  165  A    between atoms: _414  and  _415
REMARK  166  A    between atoms: _418  and  _420
REMARK  167  A    between atoms: _420  and  _421
REMARK  168  A    between atoms: _424  and  _426
REMARK  169  A    between atoms: _426  and  _427
REMARK  170  A    between atoms: _426  and  _429
REMARK  171  A    between atoms: _429  and  _430
REMARK  172  A    between atoms: _430  and  _431
REMARK  173  A    between atoms: _434  and  _436
REMARK  174  A    between atoms: _436  and  _437
REMARK  175  A    between atoms: _436  and  _439
REMARK  176  A    between atoms: _442  and  _444
REMARK  177  A    between atoms: _444  and  _445
REMARK  178  A    between atoms: _444  and  _447
REMARK  179  A    between atoms: _447  and  _448
REMARK  180  A    between atoms: _451  and  _453
REMARK  181  A    between atoms: _453  and  _454
REMARK  182  A    between atoms: _456  and  _458
REMARK  183  A    between atoms: _458  and  _459
REMARK  184  A    between atoms: _458  and  _461
REMARK  185  A    between atoms: _464  and  _466
REMARK  186  A    between atoms: _466  and  _467
REMARK  187  A    between atoms: _469  and  _471
REMARK  188  A    between atoms: _471  and  _472
REMARK  189  A    between atoms: _471  and  _474
REMARK  190  A    between atoms: _474  and  _475
REMARK  191  A    between atoms: _478  and  _480
REMARK  192  A    between atoms: _480  and  _481
REMARK  193  A    between atoms: _480  and  _483
REMARK  194  A    between atoms: _483  and  _484
REMARK  195  A    between atoms: _489  and  _491
REMARK  196  A    between atoms: _491  and  _492
REMARK  197  A    between atoms: _491  and  _494
REMARK  198  A    between atoms: _497  and  _499
REMARK  199  A    between atoms: _499  and  _500
REMARK  200  A    between atoms: _499  and  _502
REMARK  201  A    between atoms: _502  and  _503
REMARK  202  A    between atoms: _503  and  _504
REMARK  203  A    between atoms: _509  and  _511
REMARK  204  A    between atoms: _511  and  _512
REMARK  205  A    between atoms: _516  and  _517
REMARK  206  A    between atoms: _522  and  _524
REMARK  207  A    between atoms: _524  and  _525
REMARK  208  A    between atoms: _524  and  _527
REMARK  209  A    between atoms: _527  and  _528
REMARK  210  A    between atoms: _528  and  _529
REMARK  211  A    between atoms: _532  and  _534
REMARK  212  A    between atoms: _534  and  _535
REMARK  213  A    between atoms: _534  and  _537
REMARK  214  A    between atoms: _540  and  _542
REMARK  215  A    between atoms: _542  and  _543
REMARK  216  A    between atoms: _542  and  _545
REMARK  217  A    between atoms: _545  and  _546
REMARK  218  A    between atoms: _550  and  _551
REMARK  219  A    between atoms: _556  and  _558
REMARK  220  A    between atoms: _558  and  _559
REMARK  221  A    between atoms: _558  and  _561
REMARK  222  A    between atoms: _561  and  _562
REMARK  223  A    between atoms: _565  and  _567
REMARK  224  A    between atoms: _567  and  _568
REMARK  225  A    between atoms: _571  and  _573
REMARK  226  A    between atoms: _573  and  _574
REMARK  227  A    between atoms: _573  and  _576
REMARK  228  A    between atoms: _576  and  _577
REMARK  229  A    between atoms: _580  and  _582
REMARK  230  A    between atoms: _582  and  _583
REMARK  231  A    between atoms: _582  and  _585
REMARK  232  A    between atoms: _585  and  _586
REMARK  233  A    between atoms: _588  and  _590
REMARK  234  A    between atoms: _590  and  _591
REMARK  235  A    between atoms: _593  and  _595
REMARK  236  A    between atoms: _595  and  _596
REMARK  237  A    between atoms: _595  and  _598
REMARK  238  A    between atoms: _598  and  _599
REMARK  239  A    between atoms: _602  and  _604
REMARK  240  A    between atoms: _604  and  _605
REMARK  241  A    between atoms: _604  and  _607
REMARK                            x       y       z     vdW  Elec       q    Type
REMARK                         _______ _______ _______ _____ _____    ______ ____
ROOT
ATOM      1  C   PRO A   4     -10.653   5.568  10.588  0.00  0.00    +0.241 C 
ATOM      2  O   PRO A   4     -11.771   6.032  10.801  0.00  0.00    -0.273 OA
ATOM      3  N   ASP A   5     -10.442   4.417   9.945  0.00  0.00    -0.297 N 
ATOM      4  H   ASP A   5      -9.470   4.062   9.838  0.00  0.00    +0.150 HD
ENDROOT
BRANCH   1   8
ATOM      5  C   ASP A   3      -8.212   4.509  12.133  0.00  0.00    +0.244 C 
ATOM      6  O   ASP A   3      -9.209   4.153  12.756  0.00  0.00    -0.273 OA
ATOM      7  N   PRO A   4      -8.229   5.531  11.260  0.00  0.00    -0.272 N 
ATOM      8  CA  PRO A   4      -9.447   6.340  11.126  0.00  0.00    +0.152 C 
ATOM      9  CB  PRO A   4      -9.031   7.461  10.154  0.00  0.00    +0.031 C 
ATOM     10  CG  PRO A   4      -7.778   6.991   9.504  0.00  0.00    +0.024 C 
ATOM     11  CD  PRO A   4      -7.105   6.071  10.479  0.00  0.00    +0.094 C 
BRANCH   5  12
ATOM     12  CA  ASP A   3      -6.887   3.788  12.328  0.00  0.00    +0.160 C 
BRANCH  12  14
ATOM     13  C   VAL A   2      -5.545   2.975  14.212  0.00  0.00    +0.241 C 
ATOM     14  N   ASP A   3      -6.671   3.514  13.750  0.00  0.00    -0.297 N 
ATOM     15  H   ASP A   3      -7.426   3.750  14.425  0.00  0.00    +0.150 HD
ATOM     16  O   VAL A   2      -4.615   2.645  13.473  0.00  0.00    -0.273 OA
BRANCH  13  17
ATOM     17  CA  VAL A   2      -5.445   2.727  15.723  0.00  0.00    +0.148 C 
BRANCH  17  20
ATOM     18  C   GLU A   1      -5.252   4.122  17.703  0.00  0.00    +0.238 C 
ATOM     19  O   GLU A   1      -4.097   3.733  17.897  0.00  0.00    -0.274 OA
ATOM     20  N   VAL A   2      -5.943   3.778  16.615  0.00  0.00    -0.297 N 
ATOM     21  H   VAL A   2      -6.840   4.258  16.399  0.00  0.00    +0.150 HD
BRANCH  18  22
ATOM     22  CA  GLU A   1      -5.948   5.017  18.738  0.00  0.00    +0.145 C 
BRANCH  22  23
ATOM     23  N   GLU A   1      -7.072   5.760  18.175  0.00  0.00    -0.238 NA
ATOM     24  H   GLU A   1      -8.042   5.464  18.405  0.00  0.00    +0.142 HD
ENDBRANCH  22  23
BRANCH  22  25
ATOM     25  CB  GLU A   1      -6.408   4.151  19.925  0.00  0.00    +0.038 C 
BRANCH  25  26
ATOM     26  CG  GLU A   1      -6.945   4.913  21.152  0.00  0.00    +0.116 C 
BRANCH  26  27
ATOM     27  CD  GLU A   1      -7.386   3.987  22.296  0.00  0.00    +0.365 C 
ATOM     28  OE2 GLU A   1      -6.714   3.983  23.348  0.00  0.00    -0.246 OA
ATOM     29  OE1 GLU A   1      -8.405   3.267  22.163  0.00  0.00    -0.246 OA
ENDBRANCH  26  27
ENDBRANCH  25  26
ENDBRANCH  22  25
ENDBRANCH  18  22
ENDBRANCH  17  20
BRANCH  17  30
ATOM     30  CB  VAL A   2      -6.170   1.383  16.032  0.00  0.00    +0.027 C 
ATOM     31  CG2 VAL A   2      -5.748   0.860  17.405  0.00  0.00    +0.002 C 
ATOM     32  CG1 VAL A   2      -7.681   1.548  15.966  0.00  0.00    +0.002 C 
ENDBRANCH  17  30
ENDBRANCH  13  17
ENDBRANCH  12  14
BRANCH  12  33
ATOM     33  CB  ASP A   3      -6.878   2.501  11.498  0.00  0.00    +0.143 C 
BRANCH  33  34
ATOM     34  CG  ASP A   3      -6.997   2.769  10.013  0.00  0.00    +0.367 C 
ATOM     35  OD2 ASP A   3      -8.128   2.741   9.487  0.00  0.00    -0.246 OA
ATOM     36  OD1 ASP A   3      -5.958   3.005   9.365  0.00  0.00    -0.246 OA
ENDBRANCH  33  34
ENDBRANCH  12  33
ENDBRANCH   5  12
ENDBRANCH   1   8
BRANCH   3  37
ATOM     37  CA  ASP A   5     -11.556   3.645   9.388  0.00  0.00    +0.160 C 
BRANCH  37  38
ATOM     38  C   ASP A   5     -11.951   2.470  10.281  0.00  0.00    +0.241 C 
ATOM     39  N   ALA A   6     -11.379   2.412  11.479  0.00  0.00    -0.297 N 
ATOM     40  H   ALA A   6     -10.687   3.141  11.747  0.00  0.00    +0.150 HD
ATOM     41  O   ASP A   5     -12.761   1.629   9.884  0.00  0.00    -0.273 OA
BRANCH  39  42
ATOM     42  CA  ALA A   6     -11.698   1.350  12.429  0.00  0.00    +0.149 C 
ATOM     43  CB  ALA A   6     -10.568   1.190  13.458  0.00  0.00    +0.031 C 
BRANCH  42  44
ATOM     44  C   ALA A   6     -13.010   1.649  13.133  0.00  0.00    +0.241 C 
ATOM     45  N   THR A   7     -13.636   0.615  13.682  0.00  0.00    -0.295 N 
ATOM     46  H   THR A   7     -13.346  -0.348  13.418  0.00  0.00    +0.150 HD
ATOM     47  O   ALA A   6     -13.454   2.798  13.166  0.00  0.00    -0.273 OA
BRANCH  45  48
ATOM     48  CA  THR A   7     -14.716   0.789  14.642  0.00  0.00    +0.176 C 
BRANCH  48  49
ATOM     49  C   THR A   7     -14.575  -0.281  15.718  0.00  0.00    +0.243 C 
ATOM     50  N   SER A   8     -15.441  -0.255  16.724  0.00  0.00    -0.296 N 
ATOM     51  H   SER A   8     -16.199   0.458  16.729  0.00  0.00    +0.150 HD
ATOM     52  O   THR A   7     -13.665  -1.114  15.645  0.00  0.00    -0.273 OA
BRANCH  50  53
ATOM     53  CA  SER A   8     -15.347  -1.210  17.823  0.00  0.00    +0.166 C 
BRANCH  53  54
ATOM     54  CB  SER A   8     -16.736  -1.583  18.285  0.00  0.00    +0.229 C 
ATOM     55  OG  SER A   8     -17.700  -0.908  17.932  0.00  0.00    -0.286 OA
ENDBRANCH  53  54
BRANCH  53  56
ATOM     56  C   SER A   8     -14.541  -0.636  18.992  0.00  0.00    +0.165 C 
BRANCH  56  57
ATOM     57  O   SER A   8     -15.314   0.284  19.761  0.00  0.00    -0.380 OA
ATOM     58  H   SER A   8     -15.604   1.033  19.183  0.00  0.00    +0.211 HD
ENDBRANCH  56  57
ENDBRANCH  53  56
ENDBRANCH  50  53
ENDBRANCH  48  49
BRANCH  48  59
ATOM     59  CB  THR A   7     -16.116   0.728  13.975  0.00  0.00    +0.137 C 
ATOM     60  CG2 THR A   7     -16.390  -0.660  13.379  0.00  0.00    +0.034 C 
BRANCH  59  61
ATOM     61  OG1 THR A   7     -17.122   1.055  14.946  0.00  0.00    -0.382 OA
ATOM     62  HG1 THR A   7     -16.960   1.968  15.293  0.00  0.00    +0.210 HD
ENDBRANCH  59  61
ENDBRANCH  48  59
ENDBRANCH  45  48
ENDBRANCH  42  44
ENDBRANCH  39  42
ENDBRANCH  37  38
BRANCH  37  63
ATOM     63  CB  ASP A   5     -11.218   3.124   7.986  0.00  0.00    +0.143 C 
BRANCH  63  64
ATOM     64  CG  ASP A   5     -10.955   4.236   6.995  0.00  0.00    +0.367 C 
ATOM     65  OD2 ASP A   5     -11.594   5.301   7.116  0.00  0.00    -0.246 OA
ATOM     66  OD1 ASP A   5     -10.114   4.037   6.094  0.00  0.00    -0.246 OA
ENDBRANCH  63  64
ENDBRANCH  37  63
ENDBRANCH   3  37
TORSDOF 27
REMARK  Name = ../refined-set-2016/4xu1/4xu1_pocket.pdb
REMARK  241 active torsions:
REMARK  status: ('A' for Active; 'I' for Inactive)
REMARK    1  A    between atoms: _1  and  _3
REMARK    2  A    between atoms: _3  and  _4
REMARK    3  A    between atoms: _3  and  _6
REMARK    4  A    between atoms: _6  and  _7
REMARK    5  A    between atoms: _10  and  _12
REMARK    6  A    between atoms: _12  and  _13
REMARK    7  A    between atoms: _15  and  _17
REMARK    8  A    between atoms: _17  and  _18
REMARK    9  A    between atoms: _17  and  _20
REMARK   10  A    between atoms: _20  and  _21
REMARK   11  A    between atoms: _23  and  _25
REMARK   12  A    between atoms: _25  and  _26
REMARK   13  A    between atoms: _25  and  _28
REMARK   14  A    between atoms: _28  and  _29
REMARK   15  A    between atoms: _32  and  _34
REMARK   16  A    between atoms: _34  and  _35
REMARK   17  A    between atoms: _34  and  _37
REMARK   18  A    between atoms: _37  and  _38
REMARK   19  A    between atoms: _43  and  _45
REMARK   20  A    between atoms: _45  and  _46
REMARK   21  A    between atoms: _49  and  _51
REMARK   22  A    between atoms: _51  and  _52
REMARK   23  A    between atoms: _51  and  _54
REMARK   24  A    between atoms: _54  and  _55
REMARK   25  A    between atoms: _58  and  _60
REMARK   26  A    between atoms: _60  and  _61
REMARK   27  A    between atoms: _60  and  _63
REMARK   28  A    between atoms: _63  and  _64
REMARK   29  A    between atoms: _67  and  _69
REMARK   30  A    between atoms: _69  and  _70
REMARK   31  A    between atoms: _69  and  _72
REMARK   32  A    between atoms: _72  and  _73
REMARK   33  A    between atoms: _76  and  _78
REMARK   34  A    between atoms: _78  and  _79
REMARK   35  A    between atoms: _78  and  _81
REMARK   36  A    between atoms: _81  and  _82
REMARK   37  A    between atoms: _85  and  _87
REMARK   38  A    between atoms: _87  and  _88
REMARK   39  A    between atoms: _91  and  _93
REMARK   40  A    between atoms: _93  and  _94
REMARK   41  A    between atoms: _93  and  _96
REMARK   42  A    between atoms: _96  and  _97
REMARK   43  A    between atoms: _97  and  _98
REMARK   44  A    between atoms: _103  and  _105
REMARK   45  A    between atoms: _105  and  _106
REMARK   46  A    between atoms: _105  and  _108
REMARK   47  A    between atoms: _108  and  _109
REMARK   48  A    between atoms: _112  and  _114
REMARK   49  A    between atoms: _114  and  _115
REMARK   50  A    between atoms: _118  and  _120
REMARK   51  A    between atoms: _120  and  _121
REMARK   52  A    between atoms: _123  and  _125
REMARK   53  A    between atoms: _125  and  _126
REMARK   54  A    between atoms: _125  and  _128
REMARK   55  A    between atoms: _128  and  _129
REMARK   56  A    between atoms: _129  and  _130
REMARK   57  A    between atoms: _130  and  _131
REMARK   58  A    between atoms: _140  and  _142
REMARK   59  A    between atoms: _142  and  _143
REMARK   60  A    between atoms: _145  and  _147
REMARK   61  A    between atoms: _147  and  _148
REMARK   62  A    between atoms: _147  and  _150
REMARK   63  A    between atoms: _150  and  _151
REMARK   64  A    between atoms: _151  and  _152
REMARK   65  A    between atoms: _152  and  _153
REMARK   66  A    between atoms: _162  and  _164
REMARK   67  A    between atoms: _164  and  _165
REMARK   68  A    between atoms: _164  and  _167
REMARK   69  A    between atoms: _167  and  _168
REMARK   70  A    between atoms: _173  and  _175
REMARK   71  A    between atoms: _175  and  _176
REMARK   72  A    between atoms: _178  and  _180
REMARK   73  A    between atoms: _180  and  _181
REMARK   74  A    between atoms: _180  and  _183
REMARK   75  A    between atoms: _183  and  _184
REMARK   76  A    between atoms: _184  and  _185
REMARK   77  A    between atoms: _185  and  _186
REMARK   78  A    between atoms: _195  and  _197
REMARK   79  A    between atoms: _197  and  _198
REMARK   80  A    between atoms: _200  and  _202
REMARK   81  A    between atoms: _202  and  _203
REMARK   82  A    between atoms: _202  and  _205
REMARK   83  A    between atoms: _205  and  _206
REMARK   84  A    between atoms: _216  and  _218
REMARK   85  A    between atoms: _218  and  _219
REMARK   86  A    between atoms: _222  and  _224
REMARK   87  A    between atoms: _224  and  _225
REMARK   88  A    between atoms: _228  and  _230
REMARK   89  A    between atoms: _230  and  _231
REMARK   90  A    between atoms: _230  and  _233
REMARK   91  A    between atoms: _233  and  _234
REMARK   92  A    between atoms: _237  and  _239
REMARK   93  A    between atoms: _239  and  _240
REMARK   94  A    between atoms: _243  and  _245
REMARK   95  A    between atoms: _245  and  _246
REMARK   96  A    between atoms: _245  and  _248
REMARK   97  A    between atoms: _248  and  _249
REMARK   98  A    between atoms: _249  and  _250
REMARK   99  A    between atoms: _255  and  _257
REMARK  100  A    between atoms: _257  and  _258
REMARK  101  A    between atoms: _257  and  _260
REMARK  102  A    between atoms: _260  and  _261
REMARK  103  A    between atoms: _264  and  _266
REMARK  104  A    between atoms: _266  and  _267
REMARK  105  A    between atoms: _266  and  _269
REMARK  106  A    between atoms: _269  and  _270
REMARK  107  A    between atoms: _273  and  _275
REMARK  108  A    between atoms: _275  and  _276
REMARK  109  A    between atoms: _275  and  _278
REMARK  110  A    between atoms: _278  and  _279
REMARK  111  A    between atoms: _282  and  _284
REMARK  112  A    between atoms: _284  and  _285
REMARK  113  A    between atoms: _284  and  _287
REMARK  114  A    between atoms: _287  and  _288
REMARK  115  A    between atoms: _290  and  _292
REMARK  116  A    between atoms: _292  and  _293
REMARK  117  A    between atoms: _292  and  _295
REMARK  118  A    between atoms: _298  and  _300
REMARK  119  A    between atoms: _300  and  _301
REMARK  120  A    between atoms: _300  and  _303
REMARK  121  A    between atoms: _303  and  _304
REMARK  122  A    between atoms: _304  and  _305
REMARK  123  A    between atoms: _305  and  _306
REMARK  124  A    between atoms: _306  and  _307
REMARK  125  A    between atoms: _311  and  _313
REMARK  126  A    between atoms: _313  and  _314
REMARK  127  A    between atoms: _313  and  _316
REMARK  128  A    between atoms: _316  and  _317
REMARK  129  A    between atoms: _328  and  _329
REMARK  130  A    between atoms: _334  and  _336
REMARK  131  A    between atoms: _336  and  _337
REMARK  132  A    between atoms: _336  and  _339
REMARK  133  A    between atoms: _339  and  _340
REMARK  134  A    between atoms: _345  and  _347
REMARK  135  A    between atoms: _347  and  _348
REMARK  136  A    between atoms: _347  and  _350
REMARK  137  A    between atoms: _350  and  _351
REMARK  138  A    between atoms: _354  and  _356
REMARK  139  A    between atoms: _356  and  _357
REMARK  140  A    between atoms: _356  and  _359
REMARK  141  A    between atoms: _362  and  _364
REMARK  142  A    between atoms: _364  and  _365
REMARK  143  A    between atoms: _367  and  _369
REMARK  144  A    between atoms: _369  and  _370
REMARK  145  A    between atoms: _369  and  _372
REMARK  146  A    between atoms: _372  and  _373
REMARK  147  A    between atoms: _373  and  _374
REMARK  148  A    between atoms: _374  and  _375
REMARK  149  A    between atoms: _375  and  _376
REMARK  150  A    between atoms: _380  and  _382
REMARK  151  A    between atoms: _382  and  _383
REMARK  152  A    between atoms: _382  and  _385
REMARK  153  A    between atoms: _385  and  _386
REMARK  154  A    between atoms: _389  and  _391
REMARK  155  A    between atoms: _391  and  _392
REMARK  156  A    between atoms: _395  and  _397
REMARK  157  A    between atoms: _397  and  _398
REMARK  158  A    between atoms: _400  and  _402
REMARK  159  A    between atoms: _402  and  _403
REMARK  160  A    between atoms: _402  and  _405
REMARK  161  A    between atoms: _405  and  _406
REMARK  162  A    between atoms: _409  and  _411
REMARK  163  A    between atoms: _411  and  _412
REMARK  164  A    between atoms: _411  and  _414
REMARK  165  A    between atoms: _414  and  _415
REMARK  166  A    between atoms: _418  and  _420
REMARK  167  A    between atoms: _420  and  _421
REMARK  168  A    between atoms: _424  and  _426
REMARK  169  A    between atoms: _426  and  _427
REMARK  170  A    between atoms: _426  and  _429
REMARK  171  A    between atoms: _429  and  _430
REMARK  172  A    between atoms: _430  and  _431
REMARK  173  A    between atoms: _434  and  _436
REMARK  174  A    between atoms: _436  and  _437
REMARK  175  A    between atoms: _436  and  _439
REMARK  176  A    between atoms: _442  and  _444
REMARK  177  A    between atoms: _444  and  _445
REMARK  178  A    between atoms: _444  and  _447
REMARK  179  A    between atoms: _447  and  _448
REMARK  180  A    between atoms: _451  and  _453
REMARK  181  A    between atoms: _453  and  _454
REMARK  182  A    between atoms: _456  and  _458
REMARK  183  A    between atoms: _458  and  _459
REMARK  184  A    between atoms: _458  and  _461
REMARK  185  A    between atoms: _464  and  _466
REMARK  186  A    between atoms: _466  and  _467
REMARK  187  A    between atoms: _469  and  _471
REMARK  188  A    between atoms: _471  and  _472
REMARK  189  A    between atoms: _471  and  _474
REMARK  190  A    between atoms: _474  and  _475
REMARK  191  A    between atoms: _478  and  _480
REMARK  192  A    between atoms: _480  and  _481
REMARK  193  A    between atoms: _480  and  _483
REMARK  194  A    between atoms: _483  and  _484
REMARK  195  A    between atoms: _489  and  _491
REMARK  196  A    between atoms: _491  and  _492
REMARK  197  A    between atoms: _491  and  _494
REMARK  198  A    between atoms: _497  and  _499
REMARK  199  A    between atoms: _499  and  _500
REMARK  200  A    between atoms: _499  and  _502
REMARK  201  A    between atoms: _502  and  _503
REMARK  202  A    between atoms: _503  and  _504
REMARK  203  A    between atoms: _509  and  _511
REMARK  204  A    between atoms: _511  and  _512
REMARK  205  A    between atoms: _516  and  _517
REMARK  206  A    between atoms: _522  and  _524
REMARK  207  A    between atoms: _524  and  _525
REMARK  208  A    between atoms: _524  and  _527
REMARK  209  A    between atoms: _527  and  _528
REMARK  210  A    between atoms: _528  and  _529
REMARK  211  A    between atoms: _532  and  _534
REMARK  212  A    between atoms: _534  and  _535
REMARK  213  A    between atoms: _534  and  _537
REMARK  214  A    between atoms: _540  and  _542
REMARK  215  A    between atoms: _542  and  _543
REMARK  216  A    between atoms: _542  and  _545
REMARK  217  A    between atoms: _545  and  _546
REMARK  218  A    between atoms: _550  and  _551
REMARK  219  A    between atoms: _556  and  _558
REMARK  220  A    between atoms: _558  and  _559
REMARK  221  A    between atoms: _558  and  _561
REMARK  222  A    between atoms: _561  and  _562
REMARK  223  A    between atoms: _565  and  _567
REMARK  224  A    between atoms: _567  and  _568
REMARK  225  A    between atoms: _571  and  _573
REMARK  226  A    between atoms: _573  and  _574
REMARK  227  A    between atoms: _573  and  _576
REMARK  228  A    between atoms: _576  and  _577
REMARK  229  A    between atoms: _580  and  _582
REMARK  230  A    between atoms: _582  and  _583
REMARK  231  A    between atoms: _582  and  _585
REMARK  232  A    between atoms: _585  and  _586
REMARK  233  A    between atoms: _588  and  _590
REMARK  234  A    between atoms: _590  and  _591
REMARK  235  A    between atoms: _593  and  _595
REMARK  236  A    between atoms: _595  and  _596
REMARK  237  A    between atoms: _595  and  _598
REMARK  238  A    between atoms: _598  and  _599
REMARK  239  A    between atoms: _602  and  _604
REMARK  240  A    between atoms: _604  and  _605
REMARK  241  A    between atoms: _604  and  _607
REMARK                            x       y       z     vdW  Elec       q    Type
REMARK                         _______ _______ _______ _____ _____    ______ ____
ROOT
ATOM      1  CA  ASP A   2      -7.205  -4.530  -1.009  0.00  0.00    +0.160 C 
ENDROOT
BRANCH   1   4
ATOM      2  C   GLY A   1      -6.462  -6.684  -1.827  0.00  0.00    +0.240 C 
ATOM      3  O   GLY A   1      -7.135  -7.282  -0.985  0.00  0.00    -0.274 OA
ATOM      4  N   ASP A   2      -6.407  -5.359  -1.898  0.00  0.00    -0.297 N 
ATOM      5  H   ASP A   2      -5.785  -4.908  -2.599  0.00  0.00    +0.150 HD
BRANCH   2   6
ATOM      6  CA  GLY A   1      -5.645  -7.439  -2.845  0.00  0.00    +0.169 C 
BRANCH   6   7
ATOM      7  N   GLY A   1      -5.506  -8.846  -2.508  0.00  0.00    -0.236 NA
ATOM      8  H   GLY A   1      -5.770  -9.179  -1.559  0.00  0.00    +0.142 HD
ENDBRANCH   6   7
ENDBRANCH   2   6
ENDBRANCH   1   4
BRANCH   1   9
ATOM      9  C   ASP A   2      -8.448  -4.045  -1.730  0.00  0.00    +0.241 C 
ATOM     10  N   VAL A   3      -9.602  -4.393  -1.185  0.00  0.00    -0.298 N 
ATOM     11  H   VAL A   3      -9.602  -4.919  -0.288  0.00  0.00    +0.150 HD
ATOM     12  O   ASP A   2      -8.359  -3.363  -2.744  0.00  0.00    -0.273 OA
BRANCH  10  13
ATOM     13  CA  VAL A   3     -10.869  -4.057  -1.810  0.00  0.00    +0.137 C 
BRANCH  13  14
ATOM     14  CB  VAL A   3     -11.904  -5.193  -1.596  0.00  0.00    +0.026 C 
ATOM     15  CG2 VAL A   3     -13.296  -4.759  -2.022  0.00  0.00    +0.002 C 
ATOM     16  CG1 VAL A   3     -11.468  -6.440  -2.346  0.00  0.00    +0.002 C 
ENDBRANCH  13  14
BRANCH  13  17
ATOM     17  C   VAL A   3     -11.415  -2.745  -1.262  0.00  0.00    +0.227 C 
ATOM     18  O   VAL A   3     -11.431  -2.516  -0.051  0.00  0.00    -0.286 OA
ENDBRANCH  13  17
ENDBRANCH  10  13
ENDBRANCH   1   9
BRANCH   1  19
ATOM     19  CB  ASP A   2      -6.409  -3.332  -0.501  0.00  0.00    +0.143 C 
BRANCH  19  20
ATOM     20  CG  ASP A   2      -5.154  -3.738   0.215  0.00  0.00    +0.367 C 
ATOM     21  OD2 ASP A   2      -5.144  -4.804   0.871  0.00  0.00    -0.246 OA
ATOM     22  OD1 ASP A   2      -4.171  -2.979   0.122  0.00  0.00    -0.246 OA
ENDBRANCH  19  20
ENDBRANCH   1  19
TORSDOF 9
REMARK  Name = ../refined-set-2016/4xu1/4xu1_pocket.pdb
REMARK  241 active torsions:
REMARK  status: ('A' for Active; 'I' for Inactive)
REMARK    1  A    between atoms: _1  and  _3
REMARK    2  A    between atoms: _3  and  _4
REMARK    3  A    between atoms: _3  and  _6
REMARK    4  A    between atoms: _6  and  _7
REMARK    5  A    between atoms: _10  and  _12
REMARK    6  A    between atoms: _12  and  _13
REMARK    7  A    between atoms: _15  and  _17
REMARK    8  A    between atoms: _17  and  _18
REMARK    9  A    between atoms: _17  and  _20
REMARK   10  A    between atoms: _20  and  _21
REMARK   11  A    between atoms: _23  and  _25
REMARK   12  A    between atoms: _25  and  _26
REMARK   13  A    between atoms: _25  and  _28
REMARK   14  A    between atoms: _28  and  _29
REMARK   15  A    between atoms: _32  and  _34
REMARK   16  A    between atoms: _34  and  _35
REMARK   17  A    between atoms: _34  and  _37
REMARK   18  A    between atoms: _37  and  _38
REMARK   19  A    between atoms: _43  and  _45
REMARK   20  A    between atoms: _45  and  _46
REMARK   21  A    between atoms: _49  and  _51
REMARK   22  A    between atoms: _51  and  _52
REMARK   23  A    between atoms: _51  and  _54
REMARK   24  A    between atoms: _54  and  _55
REMARK   25  A    between atoms: _58  and  _60
REMARK   26  A    between atoms: _60  and  _61
REMARK   27  A    between atoms: _60  and  _63
REMARK   28  A    between atoms: _63  and  _64
REMARK   29  A    between atoms: _67  and  _69
REMARK   30  A    between atoms: _69  and  _70
REMARK   31  A    between atoms: _69  and  _72
REMARK   32  A    between atoms: _72  and  _73
REMARK   33  A    between atoms: _76  and  _78
REMARK   34  A    between atoms: _78  and  _79
REMARK   35  A    between atoms: _78  and  _81
REMARK   36  A    between atoms: _81  and  _82
REMARK   37  A    between atoms: _85  and  _87
REMARK   38  A    between atoms: _87  and  _88
REMARK   39  A    between atoms: _91  and  _93
REMARK   40  A    between atoms: _93  and  _94
REMARK   41  A    between atoms: _93  and  _96
REMARK   42  A    between atoms: _96  and  _97
REMARK   43  A    between atoms: _97  and  _98
REMARK   44  A    between atoms: _103  and  _105
REMARK   45  A    between atoms: _105  and  _106
REMARK   46  A    between atoms: _105  and  _108
REMARK   47  A    between atoms: _108  and  _109
REMARK   48  A    between atoms: _112  and  _114
REMARK   49  A    between atoms: _114  and  _115
REMARK   50  A    between atoms: _118  and  _120
REMARK   51  A    between atoms: _120  and  _121
REMARK   52  A    between atoms: _123  and  _125
REMARK   53  A    between atoms: _125  and  _126
REMARK   54  A    between atoms: _125  and  _128
REMARK   55  A    between atoms: _128  and  _129
REMARK   56  A    between atoms: _129  and  _130
REMARK   57  A    between atoms: _130  and  _131
REMARK   58  A    between atoms: _140  and  _142
REMARK   59  A    between atoms: _142  and  _143
REMARK   60  A    between atoms: _145  and  _147
REMARK   61  A    between atoms: _147  and  _148
REMARK   62  A    between atoms: _147  and  _150
REMARK   63  A    between atoms: _150  and  _151
REMARK   64  A    between atoms: _151  and  _152
REMARK   65  A    between atoms: _152  and  _153
REMARK   66  A    between atoms: _162  and  _164
REMARK   67  A    between atoms: _164  and  _165
REMARK   68  A    between atoms: _164  and  _167
REMARK   69  A    between atoms: _167  and  _168
REMARK   70  A    between atoms: _173  and  _175
REMARK   71  A    between atoms: _175  and  _176
REMARK   72  A    between atoms: _178  and  _180
REMARK   73  A    between atoms: _180  and  _181
REMARK   74  A    between atoms: _180  and  _183
REMARK   75  A    between atoms: _183  and  _184
REMARK   76  A    between atoms: _184  and  _185
REMARK   77  A    between atoms: _185  and  _186
REMARK   78  A    between atoms: _195  and  _197
REMARK   79  A    between atoms: _197  and  _198
REMARK   80  A    between atoms: _200  and  _202
REMARK   81  A    between atoms: _202  and  _203
REMARK   82  A    between atoms: _202  and  _205
REMARK   83  A    between atoms: _205  and  _206
REMARK   84  A    between atoms: _216  and  _218
REMARK   85  A    between atoms: _218  and  _219
REMARK   86  A    between atoms: _222  and  _224
REMARK   87  A    between atoms: _224  and  _225
REMARK   88  A    between atoms: _228  and  _230
REMARK   89  A    between atoms: _230  and  _231
REMARK   90  A    between atoms: _230  and  _233
REMARK   91  A    between atoms: _233  and  _234
REMARK   92  A    between atoms: _237  and  _239
REMARK   93  A    between atoms: _239  and  _240
REMARK   94  A    between atoms: _243  and  _245
REMARK   95  A    between atoms: _245  and  _246
REMARK   96  A    between atoms: _245  and  _248
REMARK   97  A    between atoms: _248  and  _249
REMARK   98  A    between atoms: _249  and  _250
REMARK   99  A    between atoms: _255  and  _257
REMARK  100  A    between atoms: _257  and  _258
REMARK  101  A    between atoms: _257  and  _260
REMARK  102  A    between atoms: _260  and  _261
REMARK  103  A    between atoms: _264  and  _266
REMARK  104  A    between atoms: _266  and  _267
REMARK  105  A    between atoms: _266  and  _269
REMARK  106  A    between atoms: _269  and  _270
REMARK  107  A    between atoms: _273  and  _275
REMARK  108  A    between atoms: _275  and  _276
REMARK  109  A    between atoms: _275  and  _278
REMARK  110  A    between atoms: _278  and  _279
REMARK  111  A    between atoms: _282  and  _284
REMARK  112  A    between atoms: _284  and  _285
REMARK  113  A    between atoms: _284  and  _287
REMARK  114  A    between atoms: _287  and  _288
REMARK  115  A    between atoms: _290  and  _292
REMARK  116  A    between atoms: _292  and  _293
REMARK  117  A    between atoms: _292  and  _295
REMARK  118  A    between atoms: _298  and  _300
REMARK  119  A    between atoms: _300  and  _301
REMARK  120  A    between atoms: _300  and  _303
REMARK  121  A    between atoms: _303  and  _304
REMARK  122  A    between atoms: _304  and  _305
REMARK  123  A    between atoms: _305  and  _306
REMARK  124  A    between atoms: _306  and  _307
REMARK  125  A    between atoms: _311  and  _313
REMARK  126  A    between atoms: _313  and  _314
REMARK  127  A    between atoms: _313  and  _316
REMARK  128  A    between atoms: _316  and  _317
REMARK  129  A    between atoms: _328  and  _329
REMARK  130  A    between atoms: _334  and  _336
REMARK  131  A    between atoms: _336  and  _337
REMARK  132  A    between atoms: _336  and  _339
REMARK  133  A    between atoms: _339  and  _340
REMARK  134  A    between atoms: _345  and  _347
REMARK  135  A    between atoms: _347  and  _348
REMARK  136  A    between atoms: _347  and  _350
REMARK  137  A    between atoms: _350  and  _351
REMARK  138  A    between atoms: _354  and  _356
REMARK  139  A    between atoms: _356  and  _357
REMARK  140  A    between atoms: _356  and  _359
REMARK  141  A    between atoms: _362  and  _364
REMARK  142  A    between atoms: _364  and  _365
REMARK  143  A    between atoms: _367  and  _369
REMARK  144  A    between atoms: _369  and  _370
REMARK  145  A    between atoms: _369  and  _372
REMARK  146  A    between atoms: _372  and  _373
REMARK  147  A    between atoms: _373  and  _374
REMARK  148  A    between atoms: _374  and  _375
REMARK  149  A    between atoms: _375  and  _376
REMARK  150  A    between atoms: _380  and  _382
REMARK  151  A    between atoms: _382  and  _383
REMARK  152  A    between atoms: _382  and  _385
REMARK  153  A    between atoms: _385  and  _386
REMARK  154  A    between atoms: _389  and  _391
REMARK  155  A    between atoms: _391  and  _392
REMARK  156  A    between atoms: _395  and  _397
REMARK  157  A    between atoms: _397  and  _398
REMARK  158  A    between atoms: _400  and  _402
REMARK  159  A    between atoms: _402  and  _403
REMARK  160  A    between atoms: _402  and  _405
REMARK  161  A    between atoms: _405  and  _406
REMARK  162  A    between atoms: _409  and  _411
REMARK  163  A    between atoms: _411  and  _412
REMARK  164  A    between atoms: _411  and  _414
REMARK  165  A    between atoms: _414  and  _415
REMARK  166  A    between atoms: _418  and  _420
REMARK  167  A    between atoms: _420  and  _421
REMARK  168  A    between atoms: _424  and  _426
REMARK  169  A    between atoms: _426  and  _427
REMARK  170  A    between atoms: _426  and  _429
REMARK  171  A    between atoms: _429  and  _430
REMARK  172  A    between atoms: _430  and  _431
REMARK  173  A    between atoms: _434  and  _436
REMARK  174  A    between atoms: _436  and  _437
REMARK  175  A    between atoms: _436  and  _439
REMARK  176  A    between atoms: _442  and  _444
REMARK  177  A    between atoms: _444  and  _445
REMARK  178  A    between atoms: _444  and  _447
REMARK  179  A    between atoms: _447  and  _448
REMARK  180  A    between atoms: _451  and  _453
REMARK  181  A    between atoms: _453  and  _454
REMARK  182  A    between atoms: _456  and  _458
REMARK  183  A    between atoms: _458  and  _459
REMARK  184  A    between atoms: _458  and  _461
REMARK  185  A    between atoms: _464  and  _466
REMARK  186  A    between atoms: _466  and  _467
REMARK  187  A    between atoms: _469  and  _471
REMARK  188  A    between atoms: _471  and  _472
REMARK  189  A    between atoms: _471  and  _474
REMARK  190  A    between atoms: _474  and  _475
REMARK  191  A    between atoms: _478  and  _480
REMARK  192  A    between atoms: _480  and  _481
REMARK  193  A    between atoms: _480  and  _483
REMARK  194  A    between atoms: _483  and  _484
REMARK  195  A    between atoms: _489  and  _491
REMARK  196  A    between atoms: _491  and  _492
REMARK  197  A    between atoms: _491  and  _494
REMARK  198  A    between atoms: _497  and  _499
REMARK  199  A    between atoms: _499  and  _500
REMARK  200  A    between atoms: _499  and  _502
REMARK  201  A    between atoms: _502  and  _503
REMARK  202  A    between atoms: _503  and  _504
REMARK  203  A    between atoms: _509  and  _511
REMARK  204  A    between atoms: _511  and  _512
REMARK  205  A    between atoms: _516  and  _517
REMARK  206  A    between atoms: _522  and  _524
REMARK  207  A    between atoms: _524  and  _525
REMARK  208  A    between atoms: _524  and  _527
REMARK  209  A    between atoms: _527  and  _528
REMARK  210  A    between atoms: _528  and  _529
REMARK  211  A    between atoms: _532  and  _534
REMARK  212  A    between atoms: _534  and  _535
REMARK  213  A    between atoms: _534  and  _537
REMARK  214  A    between atoms: _540  and  _542
REMARK  215  A    between atoms: _542  and  _543
REMARK  216  A    between atoms: _542  and  _545
REMARK  217  A    between atoms: _545  and  _546
REMARK  218  A    between atoms: _550  and  _551
REMARK  219  A    between atoms: _556  and  _558
REMARK  220  A    between atoms: _558  and  _559
REMARK  221  A    between atoms: _558  and  _561
REMARK  222  A    between atoms: _561  and  _562
REMARK  223  A    between atoms: _565  and  _567
REMARK  224  A    between atoms: _567  and  _568
REMARK  225  A    between atoms: _571  and  _573
REMARK  226  A    between atoms: _573  and  _574
REMARK  227  A    between atoms: _573  and  _576
REMARK  228  A    between atoms: _576  and  _577
REMARK  229  A    between atoms: _580  and  _582
REMARK  230  A    between atoms: _582  and  _583
REMARK  231  A    between atoms: _582  and  _585
REMARK  232  A    between atoms: _585  and  _586
REMARK  233  A    between atoms: _588  and  _590
REMARK  234  A    between atoms: _590  and  _591
REMARK  235  A    between atoms: _593  and  _595
REMARK  236  A    between atoms: _595  and  _596
REMARK  237  A    between atoms: _595  and  _598
REMARK  238  A    between atoms: _598  and  _599
REMARK  239  A    between atoms: _602  and  _604
REMARK  240  A    between atoms: _604  and  _605
REMARK  241  A    between atoms: _604  and  _607
REMARK                            x       y       z     vdW  Elec       q    Type
REMARK                         _______ _______ _______ _____ _____    ______ ____
ROOT
ATOM      1  O   HOH     1       6.386 -11.249  19.352  0.00  0.00    +0.000 OA
ENDROOT
TORSDOF 0
REMARK  Name = ../refined-set-2016/4xu1/4xu1_pocket.pdb
REMARK  241 active torsions:
REMARK  status: ('A' for Active; 'I' for Inactive)
REMARK    1  A    between atoms: _1  and  _3
REMARK    2  A    between atoms: _3  and  _4
REMARK    3  A    between atoms: _3  and  _6
REMARK    4  A    between atoms: _6  and  _7
REMARK    5  A    between atoms: _10  and  _12
REMARK    6  A    between atoms: _12  and  _13
REMARK    7  A    between atoms: _15  and  _17
REMARK    8  A    between atoms: _17  and  _18
REMARK    9  A    between atoms: _17  and  _20
REMARK   10  A    between atoms: _20  and  _21
REMARK   11  A    between atoms: _23  and  _25
REMARK   12  A    between atoms: _25  and  _26
REMARK   13  A    between atoms: _25  and  _28
REMARK   14  A    between atoms: _28  and  _29
REMARK   15  A    between atoms: _32  and  _34
REMARK   16  A    between atoms: _34  and  _35
REMARK   17  A    between atoms: _34  and  _37
REMARK   18  A    between atoms: _37  and  _38
REMARK   19  A    between atoms: _43  and  _45
REMARK   20  A    between atoms: _45  and  _46
REMARK   21  A    between atoms: _49  and  _51
REMARK   22  A    between atoms: _51  and  _52
REMARK   23  A    between atoms: _51  and  _54
REMARK   24  A    between atoms: _54  and  _55
REMARK   25  A    between atoms: _58  and  _60
REMARK   26  A    between atoms: _60  and  _61
REMARK   27  A    between atoms: _60  and  _63
REMARK   28  A    between atoms: _63  and  _64
REMARK   29  A    between atoms: _67  and  _69
REMARK   30  A    between atoms: _69  and  _70
REMARK   31  A    between atoms: _69  and  _72
REMARK   32  A    between atoms: _72  and  _73
REMARK   33  A    between atoms: _76  and  _78
REMARK   34  A    between atoms: _78  and  _79
REMARK   35  A    between atoms: _78  and  _81
REMARK   36  A    between atoms: _81  and  _82
REMARK   37  A    between atoms: _85  and  _87
REMARK   38  A    between atoms: _87  and  _88
REMARK   39  A    between atoms: _91  and  _93
REMARK   40  A    between atoms: _93  and  _94
REMARK   41  A    between atoms: _93  and  _96
REMARK   42  A    between atoms: _96  and  _97
REMARK   43  A    between atoms: _97  and  _98
REMARK   44  A    between atoms: _103  and  _105
REMARK   45  A    between atoms: _105  and  _106
REMARK   46  A    between atoms: _105  and  _108
REMARK   47  A    between atoms: _108  and  _109
REMARK   48  A    between atoms: _112  and  _114
REMARK   49  A    between atoms: _114  and  _115
REMARK   50  A    between atoms: _118  and  _120
REMARK   51  A    between atoms: _120  and  _121
REMARK   52  A    between atoms: _123  and  _125
REMARK   53  A    between atoms: _125  and  _126
REMARK   54  A    between atoms: _125  and  _128
REMARK   55  A    between atoms: _128  and  _129
REMARK   56  A    between atoms: _129  and  _130
REMARK   57  A    between atoms: _130  and  _131
REMARK   58  A    between atoms: _140  and  _142
REMARK   59  A    between atoms: _142  and  _143
REMARK   60  A    between atoms: _145  and  _147
REMARK   61  A    between atoms: _147  and  _148
REMARK   62  A    between atoms: _147  and  _150
REMARK   63  A    between atoms: _150  and  _151
REMARK   64  A    between atoms: _151  and  _152
REMARK   65  A    between atoms: _152  and  _153
REMARK   66  A    between atoms: _162  and  _164
REMARK   67  A    between atoms: _164  and  _165
REMARK   68  A    between atoms: _164  and  _167
REMARK   69  A    between atoms: _167  and  _168
REMARK   70  A    between atoms: _173  and  _175
REMARK   71  A    between atoms: _175  and  _176
REMARK   72  A    between atoms: _178  and  _180
REMARK   73  A    between atoms: _180  and  _181
REMARK   74  A    between atoms: _180  and  _183
REMARK   75  A    between atoms: _183  and  _184
REMARK   76  A    between atoms: _184  and  _185
REMARK   77  A    between atoms: _185  and  _186
REMARK   78  A    between atoms: _195  and  _197
REMARK   79  A    between atoms: _197  and  _198
REMARK   80  A    between atoms: _200  and  _202
REMARK   81  A    between atoms: _202  and  _203
REMARK   82  A    between atoms: _202  and  _205
REMARK   83  A    between atoms: _205  and  _206
REMARK   84  A    between atoms: _216  and  _218
REMARK   85  A    between atoms: _218  and  _219
REMARK   86  A    between atoms: _222  and  _224
REMARK   87  A    between atoms: _224  and  _225
REMARK   88  A    between atoms: _228  and  _230
REMARK   89  A    between atoms: _230  and  _231
REMARK   90  A    between atoms: _230  and  _233
REMARK   91  A    between atoms: _233  and  _234
REMARK   92  A    between atoms: _237  and  _239
REMARK   93  A    between atoms: _239  and  _240
REMARK   94  A    between atoms: _243  and  _245
REMARK   95  A    between atoms: _245  and  _246
REMARK   96  A    between atoms: _245  and  _248
REMARK   97  A    between atoms: _248  and  _249
REMARK   98  A    between atoms: _249  and  _250
REMARK   99  A    between atoms: _255  and  _257
REMARK  100  A    between atoms: _257  and  _258
REMARK  101  A    between atoms: _257  and  _260
REMARK  102  A    between atoms: _260  and  _261
REMARK  103  A    between atoms: _264  and  _266
REMARK  104  A    between atoms: _266  and  _267
REMARK  105  A    between atoms: _266  and  _269
REMARK  106  A    between atoms: _269  and  _270
REMARK  107  A    between atoms: _273  and  _275
REMARK  108  A    between atoms: _275  and  _276
REMARK  109  A    between atoms: _275  and  _278
REMARK  110  A    between atoms: _278  and  _279
REMARK  111  A    between atoms: _282  and  _284
REMARK  112  A    between atoms: _284  and  _285
REMARK  113  A    between atoms: _284  and  _287
REMARK  114  A    between atoms: _287  and  _288
REMARK  115  A    between atoms: _290  and  _292
REMARK  116  A    between atoms: _292  and  _293
REMARK  117  A    between atoms: _292  and  _295
REMARK  118  A    between atoms: _298  and  _300
REMARK  119  A    between atoms: _300  and  _301
REMARK  120  A    between atoms: _300  and  _303
REMARK  121  A    between atoms: _303  and  _304
REMARK  122  A    between atoms: _304  and  _305
REMARK  123  A    between atoms: _305  and  _306
REMARK  124  A    between atoms: _306  and  _307
REMARK  125  A    between atoms: _311  and  _313
REMARK  126  A    between atoms: _313  and  _314
REMARK  127  A    between atoms: _313  and  _316
REMARK  128  A    between atoms: _316  and  _317
REMARK  129  A    between atoms: _328  and  _329
REMARK  130  A    between atoms: _334  and  _336
REMARK  131  A    between atoms: _336  and  _337
REMARK  132  A    between atoms: _336  and  _339
REMARK  133  A    between atoms: _339  and  _340
REMARK  134  A    between atoms: _345  and  _347
REMARK  135  A    between atoms: _347  and  _348
REMARK  136  A    between atoms: _347  and  _350
REMARK  137  A    between atoms: _350  and  _351
REMARK  138  A    between atoms: _354  and  _356
REMARK  139  A    between atoms: _356  and  _357
REMARK  140  A    between atoms: _356  and  _359
REMARK  141  A    between atoms: _362  and  _364
REMARK  142  A    between atoms: _364  and  _365
REMARK  143  A    between atoms: _367  and  _369
REMARK  144  A    between atoms: _369  and  _370
REMARK  145  A    between atoms: _369  and  _372
REMARK  146  A    between atoms: _372  and  _373
REMARK  147  A    between atoms: _373  and  _374
REMARK  148  A    between atoms: _374  and  _375
REMARK  149  A    between atoms: _375  and  _376
REMARK  150  A    between atoms: _380  and  _382
REMARK  151  A    between atoms: _382  and  _383
REMARK  152  A    between atoms: _382  and  _385
REMARK  153  A    between atoms: _385  and  _386
REMARK  154  A    between atoms: _389  and  _391
REMARK  155  A    between atoms: _391  and  _392
REMARK  156  A    between atoms: _395  and  _397
REMARK  157  A    between atoms: _397  and  _398
REMARK  158  A    between atoms: _400  and  _402
REMARK  159  A    between atoms: _402  and  _403
REMARK  160  A    between atoms: _402  and  _405
REMARK  161  A    between atoms: _405  and  _406
REMARK  162  A    between atoms: _409  and  _411
REMARK  163  A    between atoms: _411  and  _412
REMARK  164  A    between atoms: _411  and  _414
REMARK  165  A    between atoms: _414  and  _415
REMARK  166  A    between atoms: _418  and  _420
REMARK  167  A    between atoms: _420  and  _421
REMARK  168  A    between atoms: _424  and  _426
REMARK  169  A    between atoms: _426  and  _427
REMARK  170  A    between atoms: _426  and  _429
REMARK  171  A    between atoms: _429  and  _430
REMARK  172  A    between atoms: _430  and  _431
REMARK  173  A    between atoms: _434  and  _436
REMARK  174  A    between atoms: _436  and  _437
REMARK  175  A    between atoms: _436  and  _439
REMARK  176  A    between atoms: _442  and  _444
REMARK  177  A    between atoms: _444  and  _445
REMARK  178  A    between atoms: _444  and  _447
REMARK  179  A    between atoms: _447  and  _448
REMARK  180  A    between atoms: _451  and  _453
REMARK  181  A    between atoms: _453  and  _454
REMARK  182  A    between atoms: _456  and  _458
REMARK  183  A    between atoms: _458  and  _459
REMARK  184  A    between atoms: _458  and  _461
REMARK  185  A    between atoms: _464  and  _466
REMARK  186  A    between atoms: _466  and  _467
REMARK  187  A    between atoms: _469  and  _471
REMARK  188  A    between atoms: _471  and  _472
REMARK  189  A    between atoms: _471  and  _474
REMARK  190  A    between atoms: _474  and  _475
REMARK  191  A    between atoms: _478  and  _480
REMARK  192  A    between atoms: _480  and  _481
REMARK  193  A    between atoms: _480  and  _483
REMARK  194  A    between atoms: _483  and  _484
REMARK  195  A    between atoms: _489  and  _491
REMARK  196  A    between atoms: _491  and  _492
REMARK  197  A    between atoms: _491  and  _494
REMARK  198  A    between atoms: _497  and  _499
REMARK  199  A    between atoms: _499  and  _500
REMARK  200  A    between atoms: _499  and  _502
REMARK  201  A    between atoms: _502  and  _503
REMARK  202  A    between atoms: _503  and  _504
REMARK  203  A    between atoms: _509  and  _511
REMARK  204  A    between atoms: _511  and  _512
REMARK  205  A    between atoms: _516  and  _517
REMARK  206  A    between atoms: _522  and  _524
REMARK  207  A    between atoms: _524  and  _525
REMARK  208  A    between atoms: _524  and  _527
REMARK  209  A    between atoms: _527  and  _528
REMARK  210  A    between atoms: _528  and  _529
REMARK  211  A    between atoms: _532  and  _534
REMARK  212  A    between atoms: _534  and  _535
REMARK  213  A    between atoms: _534  and  _537
REMARK  214  A    between atoms: _540  and  _542
REMARK  215  A    between atoms: _542  and  _543
REMARK  216  A    between atoms: _542  and  _545
REMARK  217  A    between atoms: _545  and  _546
REMARK  218  A    between atoms: _550  and  _551
REMARK  219  A    between atoms: _556  and  _558
REMARK  220  A    between atoms: _558  and  _559
REMARK  221  A    between atoms: _558  and  _561
REMARK  222  A    between atoms: _561  and  _562
REMARK  223  A    between atoms: _565  and  _567
REMARK  224  A    between atoms: _567  and  _568
REMARK  225  A    between atoms: _571  and  _573
REMARK  226  A    between atoms: _573  and  _574
REMARK  227  A    between atoms: _573  and  _576
REMARK  228  A    between atoms: _576  and  _577
REMARK  229  A    between atoms: _580  and  _582
REMARK  230  A    between atoms: _582  and  _583
REMARK  231  A    between atoms: _582  and  _585
REMARK  232  A    between atoms: _585  and  _586
REMARK  233  A    between atoms: _588  and  _590
REMARK  234  A    between atoms: _590  and  _591
REMARK  235  A    between atoms: _593  and  _595
REMARK  236  A    between atoms: _595  and  _596
REMARK  237  A    between atoms: _595  and  _598
REMARK  238  A    between atoms: _598  and  _599
REMARK  239  A    between atoms: _602  and  _604
REMARK  240  A    between atoms: _604  and  _605
REMARK  241  A    between atoms: _604  and  _607
REMARK                            x       y       z     vdW  Elec       q    Type
REMARK                         _______ _______ _______ _____ _____    ______ ____
ROOT
ATOM      1  O   HOH     1      -1.358   1.374   7.323  0.00  0.00    +0.000 OA
ENDROOT
TORSDOF 0
REMARK  Name = ../refined-set-2016/4xu1/4xu1_pocket.pdb
REMARK  241 active torsions:
REMARK  status: ('A' for Active; 'I' for Inactive)
REMARK    1  A    between atoms: _1  and  _3
REMARK    2  A    between atoms: _3  and  _4
REMARK    3  A    between atoms: _3  and  _6
REMARK    4  A    between atoms: _6  and  _7
REMARK    5  A    between atoms: _10  and  _12
REMARK    6  A    between atoms: _12  and  _13
REMARK    7  A    between atoms: _15  and  _17
REMARK    8  A    between atoms: _17  and  _18
REMARK    9  A    between atoms: _17  and  _20
REMARK   10  A    between atoms: _20  and  _21
REMARK   11  A    between atoms: _23  and  _25
REMARK   12  A    between atoms: _25  and  _26
REMARK   13  A    between atoms: _25  and  _28
REMARK   14  A    between atoms: _28  and  _29
REMARK   15  A    between atoms: _32  and  _34
REMARK   16  A    between atoms: _34  and  _35
REMARK   17  A    between atoms: _34  and  _37
REMARK   18  A    between atoms: _37  and  _38
REMARK   19  A    between atoms: _43  and  _45
REMARK   20  A    between atoms: _45  and  _46
REMARK   21  A    between atoms: _49  and  _51
REMARK   22  A    between atoms: _51  and  _52
REMARK   23  A    between atoms: _51  and  _54
REMARK   24  A    between atoms: _54  and  _55
REMARK   25  A    between atoms: _58  and  _60
REMARK   26  A    between atoms: _60  and  _61
REMARK   27  A    between atoms: _60  and  _63
REMARK   28  A    between atoms: _63  and  _64
REMARK   29  A    between atoms: _67  and  _69
REMARK   30  A    between atoms: _69  and  _70
REMARK   31  A    between atoms: _69  and  _72
REMARK   32  A    between atoms: _72  and  _73
REMARK   33  A    between atoms: _76  and  _78
REMARK   34  A    between atoms: _78  and  _79
REMARK   35  A    between atoms: _78  and  _81
REMARK   36  A    between atoms: _81  and  _82
REMARK   37  A    between atoms: _85  and  _87
REMARK   38  A    between atoms: _87  and  _88
REMARK   39  A    between atoms: _91  and  _93
REMARK   40  A    between atoms: _93  and  _94
REMARK   41  A    between atoms: _93  and  _96
REMARK   42  A    between atoms: _96  and  _97
REMARK   43  A    between atoms: _97  and  _98
REMARK   44  A    between atoms: _103  and  _105
REMARK   45  A    between atoms: _105  and  _106
REMARK   46  A    between atoms: _105  and  _108
REMARK   47  A    between atoms: _108  and  _109
REMARK   48  A    between atoms: _112  and  _114
REMARK   49  A    between atoms: _114  and  _115
REMARK   50  A    between atoms: _118  and  _120
REMARK   51  A    between atoms: _120  and  _121
REMARK   52  A    between atoms: _123  and  _125
REMARK   53  A    between atoms: _125  and  _126
REMARK   54  A    between atoms: _125  and  _128
REMARK   55  A    between atoms: _128  and  _129
REMARK   56  A    between atoms: _129  and  _130
REMARK   57  A    between atoms: _130  and  _131
REMARK   58  A    between atoms: _140  and  _142
REMARK   59  A    between atoms: _142  and  _143
REMARK   60  A    between atoms: _145  and  _147
REMARK   61  A    between atoms: _147  and  _148
REMARK   62  A    between atoms: _147  and  _150
REMARK   63  A    between atoms: _150  and  _151
REMARK   64  A    between atoms: _151  and  _152
REMARK   65  A    between atoms: _152  and  _153
REMARK   66  A    between atoms: _162  and  _164
REMARK   67  A    between atoms: _164  and  _165
REMARK   68  A    between atoms: _164  and  _167
REMARK   69  A    between atoms: _167  and  _168
REMARK   70  A    between atoms: _173  and  _175
REMARK   71  A    between atoms: _175  and  _176
REMARK   72  A    between atoms: _178  and  _180
REMARK   73  A    between atoms: _180  and  _181
REMARK   74  A    between atoms: _180  and  _183
REMARK   75  A    between atoms: _183  and  _184
REMARK   76  A    between atoms: _184  and  _185
REMARK   77  A    between atoms: _185  and  _186
REMARK   78  A    between atoms: _195  and  _197
REMARK   79  A    between atoms: _197  and  _198
REMARK   80  A    between atoms: _200  and  _202
REMARK   81  A    between atoms: _202  and  _203
REMARK   82  A    between atoms: _202  and  _205
REMARK   83  A    between atoms: _205  and  _206
REMARK   84  A    between atoms: _216  and  _218
REMARK   85  A    between atoms: _218  and  _219
REMARK   86  A    between atoms: _222  and  _224
REMARK   87  A    between atoms: _224  and  _225
REMARK   88  A    between atoms: _228  and  _230
REMARK   89  A    between atoms: _230  and  _231
REMARK   90  A    between atoms: _230  and  _233
REMARK   91  A    between atoms: _233  and  _234
REMARK   92  A    between atoms: _237  and  _239
REMARK   93  A    between atoms: _239  and  _240
REMARK   94  A    between atoms: _243  and  _245
REMARK   95  A    between atoms: _245  and  _246
REMARK   96  A    between atoms: _245  and  _248
REMARK   97  A    between atoms: _248  and  _249
REMARK   98  A    between atoms: _249  and  _250
REMARK   99  A    between atoms: _255  and  _257
REMARK  100  A    between atoms: _257  and  _258
REMARK  101  A    between atoms: _257  and  _260
REMARK  102  A    between atoms: _260  and  _261
REMARK  103  A    between atoms: _264  and  _266
REMARK  104  A    between atoms: _266  and  _267
REMARK  105  A    between atoms: _266  and  _269
REMARK  106  A    between atoms: _269  and  _270
REMARK  107  A    between atoms: _273  and  _275
REMARK  108  A    between atoms: _275  and  _276
REMARK  109  A    between atoms: _275  and  _278
REMARK  110  A    between atoms: _278  and  _279
REMARK  111  A    between atoms: _282  and  _284
REMARK  112  A    between atoms: _284  and  _285
REMARK  113  A    between atoms: _284  and  _287
REMARK  114  A    between atoms: _287  and  _288
REMARK  115  A    between atoms: _290  and  _292
REMARK  116  A    between atoms: _292  and  _293
REMARK  117  A    between atoms: _292  and  _295
REMARK  118  A    between atoms: _298  and  _300
REMARK  119  A    between atoms: _300  and  _301
REMARK  120  A    between atoms: _300  and  _303
REMARK  121  A    between atoms: _303  and  _304
REMARK  122  A    between atoms: _304  and  _305
REMARK  123  A    between atoms: _305  and  _306
REMARK  124  A    between atoms: _306  and  _307
REMARK  125  A    between atoms: _311  and  _313
REMARK  126  A    between atoms: _313  and  _314
REMARK  127  A    between atoms: _313  and  _316
REMARK  128  A    between atoms: _316  and  _317
REMARK  129  A    between atoms: _328  and  _329
REMARK  130  A    between atoms: _334  and  _336
REMARK  131  A    between atoms: _336  and  _337
REMARK  132  A    between atoms: _336  and  _339
REMARK  133  A    between atoms: _339  and  _340
REMARK  134  A    between atoms: _345  and  _347
REMARK  135  A    between atoms: _347  and  _348
REMARK  136  A    between atoms: _347  and  _350
REMARK  137  A    between atoms: _350  and  _351
REMARK  138  A    between atoms: _354  and  _356
REMARK  139  A    between atoms: _356  and  _357
REMARK  140  A    between atoms: _356  and  _359
REMARK  141  A    between atoms: _362  and  _364
REMARK  142  A    between atoms: _364  and  _365
REMARK  143  A    between atoms: _367  and  _369
REMARK  144  A    between atoms: _369  and  _370
REMARK  145  A    between atoms: _369  and  _372
REMARK  146  A    between atoms: _372  and  _373
REMARK  147  A    between atoms: _373  and  _374
REMARK  148  A    between atoms: _374  and  _375
REMARK  149  A    between atoms: _375  and  _376
REMARK  150  A    between atoms: _380  and  _382
REMARK  151  A    between atoms: _382  and  _383
REMARK  152  A    between atoms: _382  and  _385
REMARK  153  A    between atoms: _385  and  _386
REMARK  154  A    between atoms: _389  and  _391
REMARK  155  A    between atoms: _391  and  _392
REMARK  156  A    between atoms: _395  and  _397
REMARK  157  A    between atoms: _397  and  _398
REMARK  158  A    between atoms: _400  and  _402
REMARK  159  A    between atoms: _402  and  _403
REMARK  160  A    between atoms: _402  and  _405
REMARK  161  A    between atoms: _405  and  _406
REMARK  162  A    between atoms: _409  and  _411
REMARK  163  A    between atoms: _411  and  _412
REMARK  164  A    between atoms: _411  and  _414
REMARK  165  A    between atoms: _414  and  _415
REMARK  166  A    between atoms: _418  and  _420
REMARK  167  A    between atoms: _420  and  _421
REMARK  168  A    between atoms: _424  and  _426
REMARK  169  A    between atoms: _426  and  _427
REMARK  170  A    between atoms: _426  and  _429
REMARK  171  A    between atoms: _429  and  _430
REMARK  172  A    between atoms: _430  and  _431
REMARK  173  A    between atoms: _434  and  _436
REMARK  174  A    between atoms: _436  and  _437
REMARK  175  A    between atoms: _436  and  _439
REMARK  176  A    between atoms: _442  and  _444
REMARK  177  A    between atoms: _444  and  _445
REMARK  178  A    between atoms: _444  and  _447
REMARK  179  A    between atoms: _447  and  _448
REMARK  180  A    between atoms: _451  and  _453
REMARK  181  A    between atoms: _453  and  _454
REMARK  182  A    between atoms: _456  and  _458
REMARK  183  A    between atoms: _458  and  _459
REMARK  184  A    between atoms: _458  and  _461
REMARK  185  A    between atoms: _464  and  _466
REMARK  186  A    between atoms: _466  and  _467
REMARK  187  A    between atoms: _469  and  _471
REMARK  188  A    between atoms: _471  and  _472
REMARK  189  A    between atoms: _471  and  _474
REMARK  190  A    between atoms: _474  and  _475
REMARK  191  A    between atoms: _478  and  _480
REMARK  192  A    between atoms: _480  and  _481
REMARK  193  A    between atoms: _480  and  _483
REMARK  194  A    between atoms: _483  and  _484
REMARK  195  A    between atoms: _489  and  _491
REMARK  196  A    between atoms: _491  and  _492
REMARK  197  A    between atoms: _491  and  _494
REMARK  198  A    between atoms: _497  and  _499
REMARK  199  A    between atoms: _499  and  _500
REMARK  200  A    between atoms: _499  and  _502
REMARK  201  A    between atoms: _502  and  _503
REMARK  202  A    between atoms: _503  and  _504
REMARK  203  A    between atoms: _509  and  _511
REMARK  204  A    between atoms: _511  and  _512
REMARK  205  A    between atoms: _516  and  _517
REMARK  206  A    between atoms: _522  and  _524
REMARK  207  A    between atoms: _524  and  _525
REMARK  208  A    between atoms: _524  and  _527
REMARK  209  A    between atoms: _527  and  _528
REMARK  210  A    between atoms: _528  and  _529
REMARK  211  A    between atoms: _532  and  _534
REMARK  212  A    between atoms: _534  and  _535
REMARK  213  A    between atoms: _534  and  _537
REMARK  214  A    between atoms: _540  and  _542
REMARK  215  A    between atoms: _542  and  _543
REMARK  216  A    between atoms: _542  and  _545
REMARK  217  A    between atoms: _545  and  _546
REMARK  218  A    between atoms: _550  and  _551
REMARK  219  A    between atoms: _556  and  _558
REMARK  220  A    between atoms: _558  and  _559
REMARK  221  A    between atoms: _558  and  _561
REMARK  222  A    between atoms: _561  and  _562
REMARK  223  A    between atoms: _565  and  _567
REMARK  224  A    between atoms: _567  and  _568
REMARK  225  A    between atoms: _571  and  _573
REMARK  226  A    between atoms: _573  and  _574
REMARK  227  A    between atoms: _573  and  _576
REMARK  228  A    between atoms: _576  and  _577
REMARK  229  A    between atoms: _580  and  _582
REMARK  230  A    between atoms: _582  and  _583
REMARK  231  A    between atoms: _582  and  _585
REMARK  232  A    between atoms: _585  and  _586
REMARK  233  A    between atoms: _588  and  _590
REMARK  234  A    between atoms: _590  and  _591
REMARK  235  A    between atoms: _593  and  _595
REMARK  236  A    between atoms: _595  and  _596
REMARK  237  A    between atoms: _595  and  _598
REMARK  238  A    between atoms: _598  and  _599
REMARK  239  A    between atoms: _602  and  _604
REMARK  240  A    between atoms: _604  and  _605
REMARK  241  A    between atoms: _604  and  _607
REMARK                            x       y       z     vdW  Elec       q    Type
REMARK                         _______ _______ _______ _____ _____    ______ ____
ROOT
ATOM      1  O   HOH     1      -5.241  -9.711   0.534  0.00  0.00    +0.000 OA
ENDROOT
TORSDOF 0
REMARK  Name = ../refined-set-2016/4xu1/4xu1_pocket.pdb
REMARK  241 active torsions:
REMARK  status: ('A' for Active; 'I' for Inactive)
REMARK    1  A    between atoms: _1  and  _3
REMARK    2  A    between atoms: _3  and  _4
REMARK    3  A    between atoms: _3  and  _6
REMARK    4  A    between atoms: _6  and  _7
REMARK    5  A    between atoms: _10  and  _12
REMARK    6  A    between atoms: _12  and  _13
REMARK    7  A    between atoms: _15  and  _17
REMARK    8  A    between atoms: _17  and  _18
REMARK    9  A    between atoms: _17  and  _20
REMARK   10  A    between atoms: _20  and  _21
REMARK   11  A    between atoms: _23  and  _25
REMARK   12  A    between atoms: _25  and  _26
REMARK   13  A    between atoms: _25  and  _28
REMARK   14  A    between atoms: _28  and  _29
REMARK   15  A    between atoms: _32  and  _34
REMARK   16  A    between atoms: _34  and  _35
REMARK   17  A    between atoms: _34  and  _37
REMARK   18  A    between atoms: _37  and  _38
REMARK   19  A    between atoms: _43  and  _45
REMARK   20  A    between atoms: _45  and  _46
REMARK   21  A    between atoms: _49  and  _51
REMARK   22  A    between atoms: _51  and  _52
REMARK   23  A    between atoms: _51  and  _54
REMARK   24  A    between atoms: _54  and  _55
REMARK   25  A    between atoms: _58  and  _60
REMARK   26  A    between atoms: _60  and  _61
REMARK   27  A    between atoms: _60  and  _63
REMARK   28  A    between atoms: _63  and  _64
REMARK   29  A    between atoms: _67  and  _69
REMARK   30  A    between atoms: _69  and  _70
REMARK   31  A    between atoms: _69  and  _72
REMARK   32  A    between atoms: _72  and  _73
REMARK   33  A    between atoms: _76  and  _78
REMARK   34  A    between atoms: _78  and  _79
REMARK   35  A    between atoms: _78  and  _81
REMARK   36  A    between atoms: _81  and  _82
REMARK   37  A    between atoms: _85  and  _87
REMARK   38  A    between atoms: _87  and  _88
REMARK   39  A    between atoms: _91  and  _93
REMARK   40  A    between atoms: _93  and  _94
REMARK   41  A    between atoms: _93  and  _96
REMARK   42  A    between atoms: _96  and  _97
REMARK   43  A    between atoms: _97  and  _98
REMARK   44  A    between atoms: _103  and  _105
REMARK   45  A    between atoms: _105  and  _106
REMARK   46  A    between atoms: _105  and  _108
REMARK   47  A    between atoms: _108  and  _109
REMARK   48  A    between atoms: _112  and  _114
REMARK   49  A    between atoms: _114  and  _115
REMARK   50  A    between atoms: _118  and  _120
REMARK   51  A    between atoms: _120  and  _121
REMARK   52  A    between atoms: _123  and  _125
REMARK   53  A    between atoms: _125  and  _126
REMARK   54  A    between atoms: _125  and  _128
REMARK   55  A    between atoms: _128  and  _129
REMARK   56  A    between atoms: _129  and  _130
REMARK   57  A    between atoms: _130  and  _131
REMARK   58  A    between atoms: _140  and  _142
REMARK   59  A    between atoms: _142  and  _143
REMARK   60  A    between atoms: _145  and  _147
REMARK   61  A    between atoms: _147  and  _148
REMARK   62  A    between atoms: _147  and  _150
REMARK   63  A    between atoms: _150  and  _151
REMARK   64  A    between atoms: _151  and  _152
REMARK   65  A    between atoms: _152  and  _153
REMARK   66  A    between atoms: _162  and  _164
REMARK   67  A    between atoms: _164  and  _165
REMARK   68  A    between atoms: _164  and  _167
REMARK   69  A    between atoms: _167  and  _168
REMARK   70  A    between atoms: _173  and  _175
REMARK   71  A    between atoms: _175  and  _176
REMARK   72  A    between atoms: _178  and  _180
REMARK   73  A    between atoms: _180  and  _181
REMARK   74  A    between atoms: _180  and  _183
REMARK   75  A    between atoms: _183  and  _184
REMARK   76  A    between atoms: _184  and  _185
REMARK   77  A    between atoms: _185  and  _186
REMARK   78  A    between atoms: _195  and  _197
REMARK   79  A    between atoms: _197  and  _198
REMARK   80  A    between atoms: _200  and  _202
REMARK   81  A    between atoms: _202  and  _203
REMARK   82  A    between atoms: _202  and  _205
REMARK   83  A    between atoms: _205  and  _206
REMARK   84  A    between atoms: _216  and  _218
REMARK   85  A    between atoms: _218  and  _219
REMARK   86  A    between atoms: _222  and  _224
REMARK   87  A    between atoms: _224  and  _225
REMARK   88  A    between atoms: _228  and  _230
REMARK   89  A    between atoms: _230  and  _231
REMARK   90  A    between atoms: _230  and  _233
REMARK   91  A    between atoms: _233  and  _234
REMARK   92  A    between atoms: _237  and  _239
REMARK   93  A    between atoms: _239  and  _240
REMARK   94  A    between atoms: _243  and  _245
REMARK   95  A    between atoms: _245  and  _246
REMARK   96  A    between atoms: _245  and  _248
REMARK   97  A    between atoms: _248  and  _249
REMARK   98  A    between atoms: _249  and  _250
REMARK   99  A    between atoms: _255  and  _257
REMARK  100  A    between atoms: _257  and  _258
REMARK  101  A    between atoms: _257  and  _260
REMARK  102  A    between atoms: _260  and  _261
REMARK  103  A    between atoms: _264  and  _266
REMARK  104  A    between atoms: _266  and  _267
REMARK  105  A    between atoms: _266  and  _269
REMARK  106  A    between atoms: _269  and  _270
REMARK  107  A    between atoms: _273  and  _275
REMARK  108  A    between atoms: _275  and  _276
REMARK  109  A    between atoms: _275  and  _278
REMARK  110  A    between atoms: _278  and  _279
REMARK  111  A    between atoms: _282  and  _284
REMARK  112  A    between atoms: _284  and  _285
REMARK  113  A    between atoms: _284  and  _287
REMARK  114  A    between atoms: _287  and  _288
REMARK  115  A    between atoms: _290  and  _292
REMARK  116  A    between atoms: _292  and  _293
REMARK  117  A    between atoms: _292  and  _295
REMARK  118  A    between atoms: _298  and  _300
REMARK  119  A    between atoms: _300  and  _301
REMARK  120  A    between atoms: _300  and  _303
REMARK  121  A    between atoms: _303  and  _304
REMARK  122  A    between atoms: _304  and  _305
REMARK  123  A    between atoms: _305  and  _306
REMARK  124  A    between atoms: _306  and  _307
REMARK  125  A    between atoms: _311  and  _313
REMARK  126  A    between atoms: _313  and  _314
REMARK  127  A    between atoms: _313  and  _316
REMARK  128  A    between atoms: _316  and  _317
REMARK  129  A    between atoms: _328  and  _329
REMARK  130  A    between atoms: _334  and  _336
REMARK  131  A    between atoms: _336  and  _337
REMARK  132  A    between atoms: _336  and  _339
REMARK  133  A    between atoms: _339  and  _340
REMARK  134  A    between atoms: _345  and  _347
REMARK  135  A    between atoms: _347  and  _348
REMARK  136  A    between atoms: _347  and  _350
REMARK  137  A    between atoms: _350  and  _351
REMARK  138  A    between atoms: _354  and  _356
REMARK  139  A    between atoms: _356  and  _357
REMARK  140  A    between atoms: _356  and  _359
REMARK  141  A    between atoms: _362  and  _364
REMARK  142  A    between atoms: _364  and  _365
REMARK  143  A    between atoms: _367  and  _369
REMARK  144  A    between atoms: _369  and  _370
REMARK  145  A    between atoms: _369  and  _372
REMARK  146  A    between atoms: _372  and  _373
REMARK  147  A    between atoms: _373  and  _374
REMARK  148  A    between atoms: _374  and  _375
REMARK  149  A    between atoms: _375  and  _376
REMARK  150  A    between atoms: _380  and  _382
REMARK  151  A    between atoms: _382  and  _383
REMARK  152  A    between atoms: _382  and  _385
REMARK  153  A    between atoms: _385  and  _386
REMARK  154  A    between atoms: _389  and  _391
REMARK  155  A    between atoms: _391  and  _392
REMARK  156  A    between atoms: _395  and  _397
REMARK  157  A    between atoms: _397  and  _398
REMARK  158  A    between atoms: _400  and  _402
REMARK  159  A    between atoms: _402  and  _403
REMARK  160  A    between atoms: _402  and  _405
REMARK  161  A    between atoms: _405  and  _406
REMARK  162  A    between atoms: _409  and  _411
REMARK  163  A    between atoms: _411  and  _412
REMARK  164  A    between atoms: _411  and  _414
REMARK  165  A    between atoms: _414  and  _415
REMARK  166  A    between atoms: _418  and  _420
REMARK  167  A    between atoms: _420  and  _421
REMARK  168  A    between atoms: _424  and  _426
REMARK  169  A    between atoms: _426  and  _427
REMARK  170  A    between atoms: _426  and  _429
REMARK  171  A    between atoms: _429  and  _430
REMARK  172  A    between atoms: _430  and  _431
REMARK  173  A    between atoms: _434  and  _436
REMARK  174  A    between atoms: _436  and  _437
REMARK  175  A    between atoms: _436  and  _439
REMARK  176  A    between atoms: _442  and  _444
REMARK  177  A    between atoms: _444  and  _445
REMARK  178  A    between atoms: _444  and  _447
REMARK  179  A    between atoms: _447  and  _448
REMARK  180  A    between atoms: _451  and  _453
REMARK  181  A    between atoms: _453  and  _454
REMARK  182  A    between atoms: _456  and  _458
REMARK  183  A    between atoms: _458  and  _459
REMARK  184  A    between atoms: _458  and  _461
REMARK  185  A    between atoms: _464  and  _466
REMARK  186  A    between atoms: _466  and  _467
REMARK  187  A    between atoms: _469  and  _471
REMARK  188  A    between atoms: _471  and  _472
REMARK  189  A    between atoms: _471  and  _474
REMARK  190  A    between atoms: _474  and  _475
REMARK  191  A    between atoms: _478  and  _480
REMARK  192  A    between atoms: _480  and  _481
REMARK  193  A    between atoms: _480  and  _483
REMARK  194  A    between atoms: _483  and  _484
REMARK  195  A    between atoms: _489  and  _491
REMARK  196  A    between atoms: _491  and  _492
REMARK  197  A    between atoms: _491  and  _494
REMARK  198  A    between atoms: _497  and  _499
REMARK  199  A    between atoms: _499  and  _500
REMARK  200  A    between atoms: _499  and  _502
REMARK  201  A    between atoms: _502  and  _503
REMARK  202  A    between atoms: _503  and  _504
REMARK  203  A    between atoms: _509  and  _511
REMARK  204  A    between atoms: _511  and  _512
REMARK  205  A    between atoms: _516  and  _517
REMARK  206  A    between atoms: _522  and  _524
REMARK  207  A    between atoms: _524  and  _525
REMARK  208  A    between atoms: _524  and  _527
REMARK  209  A    between atoms: _527  and  _528
REMARK  210  A    between atoms: _528  and  _529
REMARK  211  A    between atoms: _532  and  _534
REMARK  212  A    between atoms: _534  and  _535
REMARK  213  A    between atoms: _534  and  _537
REMARK  214  A    between atoms: _540  and  _542
REMARK  215  A    between atoms: _542  and  _543
REMARK  216  A    between atoms: _542  and  _545
REMARK  217  A    between atoms: _545  and  _546
REMARK  218  A    between atoms: _550  and  _551
REMARK  219  A    between atoms: _556  and  _558
REMARK  220  A    between atoms: _558  and  _559
REMARK  221  A    between atoms: _558  and  _561
REMARK  222  A    between atoms: _561  and  _562
REMARK  223  A    between atoms: _565  and  _567
REMARK  224  A    between atoms: _567  and  _568
REMARK  225  A    between atoms: _571  and  _573
REMARK  226  A    between atoms: _573  and  _574
REMARK  227  A    between atoms: _573  and  _576
REMARK  228  A    between atoms: _576  and  _577
REMARK  229  A    between atoms: _580  and  _582
REMARK  230  A    between atoms: _582  and  _583
REMARK  231  A    between atoms: _582  and  _585
REMARK  232  A    between atoms: _585  and  _586
REMARK  233  A    between atoms: _588  and  _590
REMARK  234  A    between atoms: _590  and  _591
REMARK  235  A    between atoms: _593  and  _595
REMARK  236  A    between atoms: _595  and  _596
REMARK  237  A    between atoms: _595  and  _598
REMARK  238  A    between atoms: _598  and  _599
REMARK  239  A    between atoms: _602  and  _604
REMARK  240  A    between atoms: _604  and  _605
REMARK  241  A    between atoms: _604  and  _607
REMARK                            x       y       z     vdW  Elec       q    Type
REMARK                         _______ _______ _______ _____ _____    ______ ____
ROOT
ATOM      1  O   HOH     1      -9.587  -6.147   1.008  0.00  0.00    +0.000 OA
ENDROOT
TORSDOF 0
REMARK  Name = ../refined-set-2016/4xu1/4xu1_pocket.pdb
REMARK  241 active torsions:
REMARK  status: ('A' for Active; 'I' for Inactive)
REMARK    1  A    between atoms: _1  and  _3
REMARK    2  A    between atoms: _3  and  _4
REMARK    3  A    between atoms: _3  and  _6
REMARK    4  A    between atoms: _6  and  _7
REMARK    5  A    between atoms: _10  and  _12
REMARK    6  A    between atoms: _12  and  _13
REMARK    7  A    between atoms: _15  and  _17
REMARK    8  A    between atoms: _17  and  _18
REMARK    9  A    between atoms: _17  and  _20
REMARK   10  A    between atoms: _20  and  _21
REMARK   11  A    between atoms: _23  and  _25
REMARK   12  A    between atoms: _25  and  _26
REMARK   13  A    between atoms: _25  and  _28
REMARK   14  A    between atoms: _28  and  _29
REMARK   15  A    between atoms: _32  and  _34
REMARK   16  A    between atoms: _34  and  _35
REMARK   17  A    between atoms: _34  and  _37
REMARK   18  A    between atoms: _37  and  _38
REMARK   19  A    between atoms: _43  and  _45
REMARK   20  A    between atoms: _45  and  _46
REMARK   21  A    between atoms: _49  and  _51
REMARK   22  A    between atoms: _51  and  _52
REMARK   23  A    between atoms: _51  and  _54
REMARK   24  A    between atoms: _54  and  _55
REMARK   25  A    between atoms: _58  and  _60
REMARK   26  A    between atoms: _60  and  _61
REMARK   27  A    between atoms: _60  and  _63
REMARK   28  A    between atoms: _63  and  _64
REMARK   29  A    between atoms: _67  and  _69
REMARK   30  A    between atoms: _69  and  _70
REMARK   31  A    between atoms: _69  and  _72
REMARK   32  A    between atoms: _72  and  _73
REMARK   33  A    between atoms: _76  and  _78
REMARK   34  A    between atoms: _78  and  _79
REMARK   35  A    between atoms: _78  and  _81
REMARK   36  A    between atoms: _81  and  _82
REMARK   37  A    between atoms: _85  and  _87
REMARK   38  A    between atoms: _87  and  _88
REMARK   39  A    between atoms: _91  and  _93
REMARK   40  A    between atoms: _93  and  _94
REMARK   41  A    between atoms: _93  and  _96
REMARK   42  A    between atoms: _96  and  _97
REMARK   43  A    between atoms: _97  and  _98
REMARK   44  A    between atoms: _103  and  _105
REMARK   45  A    between atoms: _105  and  _106
REMARK   46  A    between atoms: _105  and  _108
REMARK   47  A    between atoms: _108  and  _109
REMARK   48  A    between atoms: _112  and  _114
REMARK   49  A    between atoms: _114  and  _115
REMARK   50  A    between atoms: _118  and  _120
REMARK   51  A    between atoms: _120  and  _121
REMARK   52  A    between atoms: _123  and  _125
REMARK   53  A    between atoms: _125  and  _126
REMARK   54  A    between atoms: _125  and  _128
REMARK   55  A    between atoms: _128  and  _129
REMARK   56  A    between atoms: _129  and  _130
REMARK   57  A    between atoms: _130  and  _131
REMARK   58  A    between atoms: _140  and  _142
REMARK   59  A    between atoms: _142  and  _143
REMARK   60  A    between atoms: _145  and  _147
REMARK   61  A    between atoms: _147  and  _148
REMARK   62  A    between atoms: _147  and  _150
REMARK   63  A    between atoms: _150  and  _151
REMARK   64  A    between atoms: _151  and  _152
REMARK   65  A    between atoms: _152  and  _153
REMARK   66  A    between atoms: _162  and  _164
REMARK   67  A    between atoms: _164  and  _165
REMARK   68  A    between atoms: _164  and  _167
REMARK   69  A    between atoms: _167  and  _168
REMARK   70  A    between atoms: _173  and  _175
REMARK   71  A    between atoms: _175  and  _176
REMARK   72  A    between atoms: _178  and  _180
REMARK   73  A    between atoms: _180  and  _181
REMARK   74  A    between atoms: _180  and  _183
REMARK   75  A    between atoms: _183  and  _184
REMARK   76  A    between atoms: _184  and  _185
REMARK   77  A    between atoms: _185  and  _186
REMARK   78  A    between atoms: _195  and  _197
REMARK   79  A    between atoms: _197  and  _198
REMARK   80  A    between atoms: _200  and  _202
REMARK   81  A    between atoms: _202  and  _203
REMARK   82  A    between atoms: _202  and  _205
REMARK   83  A    between atoms: _205  and  _206
REMARK   84  A    between atoms: _216  and  _218
REMARK   85  A    between atoms: _218  and  _219
REMARK   86  A    between atoms: _222  and  _224
REMARK   87  A    between atoms: _224  and  _225
REMARK   88  A    between atoms: _228  and  _230
REMARK   89  A    between atoms: _230  and  _231
REMARK   90  A    between atoms: _230  and  _233
REMARK   91  A    between atoms: _233  and  _234
REMARK   92  A    between atoms: _237  and  _239
REMARK   93  A    between atoms: _239  and  _240
REMARK   94  A    between atoms: _243  and  _245
REMARK   95  A    between atoms: _245  and  _246
REMARK   96  A    between atoms: _245  and  _248
REMARK   97  A    between atoms: _248  and  _249
REMARK   98  A    between atoms: _249  and  _250
REMARK   99  A    between atoms: _255  and  _257
REMARK  100  A    between atoms: _257  and  _258
REMARK  101  A    between atoms: _257  and  _260
REMARK  102  A    between atoms: _260  and  _261
REMARK  103  A    between atoms: _264  and  _266
REMARK  104  A    between atoms: _266  and  _267
REMARK  105  A    between atoms: _266  and  _269
REMARK  106  A    between atoms: _269  and  _270
REMARK  107  A    between atoms: _273  and  _275
REMARK  108  A    between atoms: _275  and  _276
REMARK  109  A    between atoms: _275  and  _278
REMARK  110  A    between atoms: _278  and  _279
REMARK  111  A    between atoms: _282  and  _284
REMARK  112  A    between atoms: _284  and  _285
REMARK  113  A    between atoms: _284  and  _287
REMARK  114  A    between atoms: _287  and  _288
REMARK  115  A    between atoms: _290  and  _292
REMARK  116  A    between atoms: _292  and  _293
REMARK  117  A    between atoms: _292  and  _295
REMARK  118  A    between atoms: _298  and  _300
REMARK  119  A    between atoms: _300  and  _301
REMARK  120  A    between atoms: _300  and  _303
REMARK  121  A    between atoms: _303  and  _304
REMARK  122  A    between atoms: _304  and  _305
REMARK  123  A    between atoms: _305  and  _306
REMARK  124  A    between atoms: _306  and  _307
REMARK  125  A    between atoms: _311  and  _313
REMARK  126  A    between atoms: _313  and  _314
REMARK  127  A    between atoms: _313  and  _316
REMARK  128  A    between atoms: _316  and  _317
REMARK  129  A    between atoms: _328  and  _329
REMARK  130  A    between atoms: _334  and  _336
REMARK  131  A    between atoms: _336  and  _337
REMARK  132  A    between atoms: _336  and  _339
REMARK  133  A    between atoms: _339  and  _340
REMARK  134  A    between atoms: _345  and  _347
REMARK  135  A    between atoms: _347  and  _348
REMARK  136  A    between atoms: _347  and  _350
REMARK  137  A    between atoms: _350  and  _351
REMARK  138  A    between atoms: _354  and  _356
REMARK  139  A    between atoms: _356  and  _357
REMARK  140  A    between atoms: _356  and  _359
REMARK  141  A    between atoms: _362  and  _364
REMARK  142  A    between atoms: _364  and  _365
REMARK  143  A    between atoms: _367  and  _369
REMARK  144  A    between atoms: _369  and  _370
REMARK  145  A    between atoms: _369  and  _372
REMARK  146  A    between atoms: _372  and  _373
REMARK  147  A    between atoms: _373  and  _374
REMARK  148  A    between atoms: _374  and  _375
REMARK  149  A    between atoms: _375  and  _376
REMARK  150  A    between atoms: _380  and  _382
REMARK  151  A    between atoms: _382  and  _383
REMARK  152  A    between atoms: _382  and  _385
REMARK  153  A    between atoms: _385  and  _386
REMARK  154  A    between atoms: _389  and  _391
REMARK  155  A    between atoms: _391  and  _392
REMARK  156  A    between atoms: _395  and  _397
REMARK  157  A    between atoms: _397  and  _398
REMARK  158  A    between atoms: _400  and  _402
REMARK  159  A    between atoms: _402  and  _403
REMARK  160  A    between atoms: _402  and  _405
REMARK  161  A    between atoms: _405  and  _406
REMARK  162  A    between atoms: _409  and  _411
REMARK  163  A    between atoms: _411  and  _412
REMARK  164  A    between atoms: _411  and  _414
REMARK  165  A    between atoms: _414  and  _415
REMARK  166  A    between atoms: _418  and  _420
REMARK  167  A    between atoms: _420  and  _421
REMARK  168  A    between atoms: _424  and  _426
REMARK  169  A    between atoms: _426  and  _427
REMARK  170  A    between atoms: _426  and  _429
REMARK  171  A    between atoms: _429  and  _430
REMARK  172  A    between atoms: _430  and  _431
REMARK  173  A    between atoms: _434  and  _436
REMARK  174  A    between atoms: _436  and  _437
REMARK  175  A    between atoms: _436  and  _439
REMARK  176  A    between atoms: _442  and  _444
REMARK  177  A    between atoms: _444  and  _445
REMARK  178  A    between atoms: _444  and  _447
REMARK  179  A    between atoms: _447  and  _448
REMARK  180  A    between atoms: _451  and  _453
REMARK  181  A    between atoms: _453  and  _454
REMARK  182  A    between atoms: _456  and  _458
REMARK  183  A    between atoms: _458  and  _459
REMARK  184  A    between atoms: _458  and  _461
REMARK  185  A    between atoms: _464  and  _466
REMARK  186  A    between atoms: _466  and  _467
REMARK  187  A    between atoms: _469  and  _471
REMARK  188  A    between atoms: _471  and  _472
REMARK  189  A    between atoms: _471  and  _474
REMARK  190  A    between atoms: _474  and  _475
REMARK  191  A    between atoms: _478  and  _480
REMARK  192  A    between atoms: _480  and  _481
REMARK  193  A    between atoms: _480  and  _483
REMARK  194  A    between atoms: _483  and  _484
REMARK  195  A    between atoms: _489  and  _491
REMARK  196  A    between atoms: _491  and  _492
REMARK  197  A    between atoms: _491  and  _494
REMARK  198  A    between atoms: _497  and  _499
REMARK  199  A    between atoms: _499  and  _500
REMARK  200  A    between atoms: _499  and  _502
REMARK  201  A    between atoms: _502  and  _503
REMARK  202  A    between atoms: _503  and  _504
REMARK  203  A    between atoms: _509  and  _511
REMARK  204  A    between atoms: _511  and  _512
REMARK  205  A    between atoms: _516  and  _517
REMARK  206  A    between atoms: _522  and  _524
REMARK  207  A    between atoms: _524  and  _525
REMARK  208  A    between atoms: _524  and  _527
REMARK  209  A    between atoms: _527  and  _528
REMARK  210  A    between atoms: _528  and  _529
REMARK  211  A    between atoms: _532  and  _534
REMARK  212  A    between atoms: _534  and  _535
REMARK  213  A    between atoms: _534  and  _537
REMARK  214  A    between atoms: _540  and  _542
REMARK  215  A    between atoms: _542  and  _543
REMARK  216  A    between atoms: _542  and  _545
REMARK  217  A    between atoms: _545  and  _546
REMARK  218  A    between atoms: _550  and  _551
REMARK  219  A    between atoms: _556  and  _558
REMARK  220  A    between atoms: _558  and  _559
REMARK  221  A    between atoms: _558  and  _561
REMARK  222  A    between atoms: _561  and  _562
REMARK  223  A    between atoms: _565  and  _567
REMARK  224  A    between atoms: _567  and  _568
REMARK  225  A    between atoms: _571  and  _573
REMARK  226  A    between atoms: _573  and  _574
REMARK  227  A    between atoms: _573  and  _576
REMARK  228  A    between atoms: _576  and  _577
REMARK  229  A    between atoms: _580  and  _582
REMARK  230  A    between atoms: _582  and  _583
REMARK  231  A    between atoms: _582  and  _585
REMARK  232  A    between atoms: _585  and  _586
REMARK  233  A    between atoms: _588  and  _590
REMARK  234  A    between atoms: _590  and  _591
REMARK  235  A    between atoms: _593  and  _595
REMARK  236  A    between atoms: _595  and  _596
REMARK  237  A    between atoms: _595  and  _598
REMARK  238  A    between atoms: _598  and  _599
REMARK  239  A    between atoms: _602  and  _604
REMARK  240  A    between atoms: _604  and  _605
REMARK  241  A    between atoms: _604  and  _607
REMARK                            x       y       z     vdW  Elec       q    Type
REMARK                         _______ _______ _______ _____ _____    ______ ____
ROOT
ATOM      1  O   HOH     1      -7.650  -2.338   6.680  0.00  0.00    +0.000 OA
ENDROOT
TORSDOF 0
REMARK  Name = ../refined-set-2016/4xu1/4xu1_pocket.pdb
REMARK  241 active torsions:
REMARK  status: ('A' for Active; 'I' for Inactive)
REMARK    1  A    between atoms: _1  and  _3
REMARK    2  A    between atoms: _3  and  _4
REMARK    3  A    between atoms: _3  and  _6
REMARK    4  A    between atoms: _6  and  _7
REMARK    5  A    between atoms: _10  and  _12
REMARK    6  A    between atoms: _12  and  _13
REMARK    7  A    between atoms: _15  and  _17
REMARK    8  A    between atoms: _17  and  _18
REMARK    9  A    between atoms: _17  and  _20
REMARK   10  A    between atoms: _20  and  _21
REMARK   11  A    between atoms: _23  and  _25
REMARK   12  A    between atoms: _25  and  _26
REMARK   13  A    between atoms: _25  and  _28
REMARK   14  A    between atoms: _28  and  _29
REMARK   15  A    between atoms: _32  and  _34
REMARK   16  A    between atoms: _34  and  _35
REMARK   17  A    between atoms: _34  and  _37
REMARK   18  A    between atoms: _37  and  _38
REMARK   19  A    between atoms: _43  and  _45
REMARK   20  A    between atoms: _45  and  _46
REMARK   21  A    between atoms: _49  and  _51
REMARK   22  A    between atoms: _51  and  _52
REMARK   23  A    between atoms: _51  and  _54
REMARK   24  A    between atoms: _54  and  _55
REMARK   25  A    between atoms: _58  and  _60
REMARK   26  A    between atoms: _60  and  _61
REMARK   27  A    between atoms: _60  and  _63
REMARK   28  A    between atoms: _63  and  _64
REMARK   29  A    between atoms: _67  and  _69
REMARK   30  A    between atoms: _69  and  _70
REMARK   31  A    between atoms: _69  and  _72
REMARK   32  A    between atoms: _72  and  _73
REMARK   33  A    between atoms: _76  and  _78
REMARK   34  A    between atoms: _78  and  _79
REMARK   35  A    between atoms: _78  and  _81
REMARK   36  A    between atoms: _81  and  _82
REMARK   37  A    between atoms: _85  and  _87
REMARK   38  A    between atoms: _87  and  _88
REMARK   39  A    between atoms: _91  and  _93
REMARK   40  A    between atoms: _93  and  _94
REMARK   41  A    between atoms: _93  and  _96
REMARK   42  A    between atoms: _96  and  _97
REMARK   43  A    between atoms: _97  and  _98
REMARK   44  A    between atoms: _103  and  _105
REMARK   45  A    between atoms: _105  and  _106
REMARK   46  A    between atoms: _105  and  _108
REMARK   47  A    between atoms: _108  and  _109
REMARK   48  A    between atoms: _112  and  _114
REMARK   49  A    between atoms: _114  and  _115
REMARK   50  A    between atoms: _118  and  _120
REMARK   51  A    between atoms: _120  and  _121
REMARK   52  A    between atoms: _123  and  _125
REMARK   53  A    between atoms: _125  and  _126
REMARK   54  A    between atoms: _125  and  _128
REMARK   55  A    between atoms: _128  and  _129
REMARK   56  A    between atoms: _129  and  _130
REMARK   57  A    between atoms: _130  and  _131
REMARK   58  A    between atoms: _140  and  _142
REMARK   59  A    between atoms: _142  and  _143
REMARK   60  A    between atoms: _145  and  _147
REMARK   61  A    between atoms: _147  and  _148
REMARK   62  A    between atoms: _147  and  _150
REMARK   63  A    between atoms: _150  and  _151
REMARK   64  A    between atoms: _151  and  _152
REMARK   65  A    between atoms: _152  and  _153
REMARK   66  A    between atoms: _162  and  _164
REMARK   67  A    between atoms: _164  and  _165
REMARK   68  A    between atoms: _164  and  _167
REMARK   69  A    between atoms: _167  and  _168
REMARK   70  A    between atoms: _173  and  _175
REMARK   71  A    between atoms: _175  and  _176
REMARK   72  A    between atoms: _178  and  _180
REMARK   73  A    between atoms: _180  and  _181
REMARK   74  A    between atoms: _180  and  _183
REMARK   75  A    between atoms: _183  and  _184
REMARK   76  A    between atoms: _184  and  _185
REMARK   77  A    between atoms: _185  and  _186
REMARK   78  A    between atoms: _195  and  _197
REMARK   79  A    between atoms: _197  and  _198
REMARK   80  A    between atoms: _200  and  _202
REMARK   81  A    between atoms: _202  and  _203
REMARK   82  A    between atoms: _202  and  _205
REMARK   83  A    between atoms: _205  and  _206
REMARK   84  A    between atoms: _216  and  _218
REMARK   85  A    between atoms: _218  and  _219
REMARK   86  A    between atoms: _222  and  _224
REMARK   87  A    between atoms: _224  and  _225
REMARK   88  A    between atoms: _228  and  _230
REMARK   89  A    between atoms: _230  and  _231
REMARK   90  A    between atoms: _230  and  _233
REMARK   91  A    between atoms: _233  and  _234
REMARK   92  A    between atoms: _237  and  _239
REMARK   93  A    between atoms: _239  and  _240
REMARK   94  A    between atoms: _243  and  _245
REMARK   95  A    between atoms: _245  and  _246
REMARK   96  A    between atoms: _245  and  _248
REMARK   97  A    between atoms: _248  and  _249
REMARK   98  A    between atoms: _249  and  _250
REMARK   99  A    between atoms: _255  and  _257
REMARK  100  A    between atoms: _257  and  _258
REMARK  101  A    between atoms: _257  and  _260
REMARK  102  A    between atoms: _260  and  _261
REMARK  103  A    between atoms: _264  and  _266
REMARK  104  A    between atoms: _266  and  _267
REMARK  105  A    between atoms: _266  and  _269
REMARK  106  A    between atoms: _269  and  _270
REMARK  107  A    between atoms: _273  and  _275
REMARK  108  A    between atoms: _275  and  _276
REMARK  109  A    between atoms: _275  and  _278
REMARK  110  A    between atoms: _278  and  _279
REMARK  111  A    between atoms: _282  and  _284
REMARK  112  A    between atoms: _284  and  _285
REMARK  113  A    between atoms: _284  and  _287
REMARK  114  A    between atoms: _287  and  _288
REMARK  115  A    between atoms: _290  and  _292
REMARK  116  A    between atoms: _292  and  _293
REMARK  117  A    between atoms: _292  and  _295
REMARK  118  A    between atoms: _298  and  _300
REMARK  119  A    between atoms: _300  and  _301
REMARK  120  A    between atoms: _300  and  _303
REMARK  121  A    between atoms: _303  and  _304
REMARK  122  A    between atoms: _304  and  _305
REMARK  123  A    between atoms: _305  and  _306
REMARK  124  A    between atoms: _306  and  _307
REMARK  125  A    between atoms: _311  and  _313
REMARK  126  A    between atoms: _313  and  _314
REMARK  127  A    between atoms: _313  and  _316
REMARK  128  A    between atoms: _316  and  _317
REMARK  129  A    between atoms: _328  and  _329
REMARK  130  A    between atoms: _334  and  _336
REMARK  131  A    between atoms: _336  and  _337
REMARK  132  A    between atoms: _336  and  _339
REMARK  133  A    between atoms: _339  and  _340
REMARK  134  A    between atoms: _345  and  _347
REMARK  135  A    between atoms: _347  and  _348
REMARK  136  A    between atoms: _347  and  _350
REMARK  137  A    between atoms: _350  and  _351
REMARK  138  A    between atoms: _354  and  _356
REMARK  139  A    between atoms: _356  and  _357
REMARK  140  A    between atoms: _356  and  _359
REMARK  141  A    between atoms: _362  and  _364
REMARK  142  A    between atoms: _364  and  _365
REMARK  143  A    between atoms: _367  and  _369
REMARK  144  A    between atoms: _369  and  _370
REMARK  145  A    between atoms: _369  and  _372
REMARK  146  A    between atoms: _372  and  _373
REMARK  147  A    between atoms: _373  and  _374
REMARK  148  A    between atoms: _374  and  _375
REMARK  149  A    between atoms: _375  and  _376
REMARK  150  A    between atoms: _380  and  _382
REMARK  151  A    between atoms: _382  and  _383
REMARK  152  A    between atoms: _382  and  _385
REMARK  153  A    between atoms: _385  and  _386
REMARK  154  A    between atoms: _389  and  _391
REMARK  155  A    between atoms: _391  and  _392
REMARK  156  A    between atoms: _395  and  _397
REMARK  157  A    between atoms: _397  and  _398
REMARK  158  A    between atoms: _400  and  _402
REMARK  159  A    between atoms: _402  and  _403
REMARK  160  A    between atoms: _402  and  _405
REMARK  161  A    between atoms: _405  and  _406
REMARK  162  A    between atoms: _409  and  _411
REMARK  163  A    between atoms: _411  and  _412
REMARK  164  A    between atoms: _411  and  _414
REMARK  165  A    between atoms: _414  and  _415
REMARK  166  A    between atoms: _418  and  _420
REMARK  167  A    between atoms: _420  and  _421
REMARK  168  A    between atoms: _424  and  _426
REMARK  169  A    between atoms: _426  and  _427
REMARK  170  A    between atoms: _426  and  _429
REMARK  171  A    between atoms: _429  and  _430
REMARK  172  A    between atoms: _430  and  _431
REMARK  173  A    between atoms: _434  and  _436
REMARK  174  A    between atoms: _436  and  _437
REMARK  175  A    between atoms: _436  and  _439
REMARK  176  A    between atoms: _442  and  _444
REMARK  177  A    between atoms: _444  and  _445
REMARK  178  A    between atoms: _444  and  _447
REMARK  179  A    between atoms: _447  and  _448
REMARK  180  A    between atoms: _451  and  _453
REMARK  181  A    between atoms: _453  and  _454
REMARK  182  A    between atoms: _456  and  _458
REMARK  183  A    between atoms: _458  and  _459
REMARK  184  A    between atoms: _458  and  _461
REMARK  185  A    between atoms: _464  and  _466
REMARK  186  A    between atoms: _466  and  _467
REMARK  187  A    between atoms: _469  and  _471
REMARK  188  A    between atoms: _471  and  _472
REMARK  189  A    between atoms: _471  and  _474
REMARK  190  A    between atoms: _474  and  _475
REMARK  191  A    between atoms: _478  and  _480
REMARK  192  A    between atoms: _480  and  _481
REMARK  193  A    between atoms: _480  and  _483
REMARK  194  A    between atoms: _483  and  _484
REMARK  195  A    between atoms: _489  and  _491
REMARK  196  A    between atoms: _491  and  _492
REMARK  197  A    between atoms: _491  and  _494
REMARK  198  A    between atoms: _497  and  _499
REMARK  199  A    between atoms: _499  and  _500
REMARK  200  A    between atoms: _499  and  _502
REMARK  201  A    between atoms: _502  and  _503
REMARK  202  A    between atoms: _503  and  _504
REMARK  203  A    between atoms: _509  and  _511
REMARK  204  A    between atoms: _511  and  _512
REMARK  205  A    between atoms: _516  and  _517
REMARK  206  A    between atoms: _522  and  _524
REMARK  207  A    between atoms: _524  and  _525
REMARK  208  A    between atoms: _524  and  _527
REMARK  209  A    between atoms: _527  and  _528
REMARK  210  A    between atoms: _528  and  _529
REMARK  211  A    between atoms: _532  and  _534
REMARK  212  A    between atoms: _534  and  _535
REMARK  213  A    between atoms: _534  and  _537
REMARK  214  A    between atoms: _540  and  _542
REMARK  215  A    between atoms: _542  and  _543
REMARK  216  A    between atoms: _542  and  _545
REMARK  217  A    between atoms: _545  and  _546
REMARK  218  A    between atoms: _550  and  _551
REMARK  219  A    between atoms: _556  and  _558
REMARK  220  A    between atoms: _558  and  _559
REMARK  221  A    between atoms: _558  and  _561
REMARK  222  A    between atoms: _561  and  _562
REMARK  223  A    between atoms: _565  and  _567
REMARK  224  A    between atoms: _567  and  _568
REMARK  225  A    between atoms: _571  and  _573
REMARK  226  A    between atoms: _573  and  _574
REMARK  227  A    between atoms: _573  and  _576
REMARK  228  A    between atoms: _576  and  _577
REMARK  229  A    between atoms: _580  and  _582
REMARK  230  A    between atoms: _582  and  _583
REMARK  231  A    between atoms: _582  and  _585
REMARK  232  A    between atoms: _585  and  _586
REMARK  233  A    between atoms: _588  and  _590
REMARK  234  A    between atoms: _590  and  _591
REMARK  235  A    between atoms: _593  and  _595
REMARK  236  A    between atoms: _595  and  _596
REMARK  237  A    between atoms: _595  and  _598
REMARK  238  A    between atoms: _598  and  _599
REMARK  239  A    between atoms: _602  and  _604
REMARK  240  A    between atoms: _604  and  _605
REMARK  241  A    between atoms: _604  and  _607
REMARK                            x       y       z     vdW  Elec       q    Type
REMARK                         _______ _______ _______ _____ _____    ______ ____
ROOT
ATOM      1  O   HOH     1       7.345 -10.417  16.929  0.00  0.00    +0.000 OA
ENDROOT
TORSDOF 0
REMARK  Name = ../refined-set-2016/4xu1/4xu1_pocket.pdb
REMARK  241 active torsions:
REMARK  status: ('A' for Active; 'I' for Inactive)
REMARK    1  A    between atoms: _1  and  _3
REMARK    2  A    between atoms: _3  and  _4
REMARK    3  A    between atoms: _3  and  _6
REMARK    4  A    between atoms: _6  and  _7
REMARK    5  A    between atoms: _10  and  _12
REMARK    6  A    between atoms: _12  and  _13
REMARK    7  A    between atoms: _15  and  _17
REMARK    8  A    between atoms: _17  and  _18
REMARK    9  A    between atoms: _17  and  _20
REMARK   10  A    between atoms: _20  and  _21
REMARK   11  A    between atoms: _23  and  _25
REMARK   12  A    between atoms: _25  and  _26
REMARK   13  A    between atoms: _25  and  _28
REMARK   14  A    between atoms: _28  and  _29
REMARK   15  A    between atoms: _32  and  _34
REMARK   16  A    between atoms: _34  and  _35
REMARK   17  A    between atoms: _34  and  _37
REMARK   18  A    between atoms: _37  and  _38
REMARK   19  A    between atoms: _43  and  _45
REMARK   20  A    between atoms: _45  and  _46
REMARK   21  A    between atoms: _49  and  _51
REMARK   22  A    between atoms: _51  and  _52
REMARK   23  A    between atoms: _51  and  _54
REMARK   24  A    between atoms: _54  and  _55
REMARK   25  A    between atoms: _58  and  _60
REMARK   26  A    between atoms: _60  and  _61
REMARK   27  A    between atoms: _60  and  _63
REMARK   28  A    between atoms: _63  and  _64
REMARK   29  A    between atoms: _67  and  _69
REMARK   30  A    between atoms: _69  and  _70
REMARK   31  A    between atoms: _69  and  _72
REMARK   32  A    between atoms: _72  and  _73
REMARK   33  A    between atoms: _76  and  _78
REMARK   34  A    between atoms: _78  and  _79
REMARK   35  A    between atoms: _78  and  _81
REMARK   36  A    between atoms: _81  and  _82
REMARK   37  A    between atoms: _85  and  _87
REMARK   38  A    between atoms: _87  and  _88
REMARK   39  A    between atoms: _91  and  _93
REMARK   40  A    between atoms: _93  and  _94
REMARK   41  A    between atoms: _93  and  _96
REMARK   42  A    between atoms: _96  and  _97
REMARK   43  A    between atoms: _97  and  _98
REMARK   44  A    between atoms: _103  and  _105
REMARK   45  A    between atoms: _105  and  _106
REMARK   46  A    between atoms: _105  and  _108
REMARK   47  A    between atoms: _108  and  _109
REMARK   48  A    between atoms: _112  and  _114
REMARK   49  A    between atoms: _114  and  _115
REMARK   50  A    between atoms: _118  and  _120
REMARK   51  A    between atoms: _120  and  _121
REMARK   52  A    between atoms: _123  and  _125
REMARK   53  A    between atoms: _125  and  _126
REMARK   54  A    between atoms: _125  and  _128
REMARK   55  A    between atoms: _128  and  _129
REMARK   56  A    between atoms: _129  and  _130
REMARK   57  A    between atoms: _130  and  _131
REMARK   58  A    between atoms: _140  and  _142
REMARK   59  A    between atoms: _142  and  _143
REMARK   60  A    between atoms: _145  and  _147
REMARK   61  A    between atoms: _147  and  _148
REMARK   62  A    between atoms: _147  and  _150
REMARK   63  A    between atoms: _150  and  _151
REMARK   64  A    between atoms: _151  and  _152
REMARK   65  A    between atoms: _152  and  _153
REMARK   66  A    between atoms: _162  and  _164
REMARK   67  A    between atoms: _164  and  _165
REMARK   68  A    between atoms: _164  and  _167
REMARK   69  A    between atoms: _167  and  _168
REMARK   70  A    between atoms: _173  and  _175
REMARK   71  A    between atoms: _175  and  _176
REMARK   72  A    between atoms: _178  and  _180
REMARK   73  A    between atoms: _180  and  _181
REMARK   74  A    between atoms: _180  and  _183
REMARK   75  A    between atoms: _183  and  _184
REMARK   76  A    between atoms: _184  and  _185
REMARK   77  A    between atoms: _185  and  _186
REMARK   78  A    between atoms: _195  and  _197
REMARK   79  A    between atoms: _197  and  _198
REMARK   80  A    between atoms: _200  and  _202
REMARK   81  A    between atoms: _202  and  _203
REMARK   82  A    between atoms: _202  and  _205
REMARK   83  A    between atoms: _205  and  _206
REMARK   84  A    between atoms: _216  and  _218
REMARK   85  A    between atoms: _218  and  _219
REMARK   86  A    between atoms: _222  and  _224
REMARK   87  A    between atoms: _224  and  _225
REMARK   88  A    between atoms: _228  and  _230
REMARK   89  A    between atoms: _230  and  _231
REMARK   90  A    between atoms: _230  and  _233
REMARK   91  A    between atoms: _233  and  _234
REMARK   92  A    between atoms: _237  and  _239
REMARK   93  A    between atoms: _239  and  _240
REMARK   94  A    between atoms: _243  and  _245
REMARK   95  A    between atoms: _245  and  _246
REMARK   96  A    between atoms: _245  and  _248
REMARK   97  A    between atoms: _248  and  _249
REMARK   98  A    between atoms: _249  and  _250
REMARK   99  A    between atoms: _255  and  _257
REMARK  100  A    between atoms: _257  and  _258
REMARK  101  A    between atoms: _257  and  _260
REMARK  102  A    between atoms: _260  and  _261
REMARK  103  A    between atoms: _264  and  _266
REMARK  104  A    between atoms: _266  and  _267
REMARK  105  A    between atoms: _266  and  _269
REMARK  106  A    between atoms: _269  and  _270
REMARK  107  A    between atoms: _273  and  _275
REMARK  108  A    between atoms: _275  and  _276
REMARK  109  A    between atoms: _275  and  _278
REMARK  110  A    between atoms: _278  and  _279
REMARK  111  A    between atoms: _282  and  _284
REMARK  112  A    between atoms: _284  and  _285
REMARK  113  A    between atoms: _284  and  _287
REMARK  114  A    between atoms: _287  and  _288
REMARK  115  A    between atoms: _290  and  _292
REMARK  116  A    between atoms: _292  and  _293
REMARK  117  A    between atoms: _292  and  _295
REMARK  118  A    between atoms: _298  and  _300
REMARK  119  A    between atoms: _300  and  _301
REMARK  120  A    between atoms: _300  and  _303
REMARK  121  A    between atoms: _303  and  _304
REMARK  122  A    between atoms: _304  and  _305
REMARK  123  A    between atoms: _305  and  _306
REMARK  124  A    between atoms: _306  and  _307
REMARK  125  A    between atoms: _311  and  _313
REMARK  126  A    between atoms: _313  and  _314
REMARK  127  A    between atoms: _313  and  _316
REMARK  128  A    between atoms: _316  and  _317
REMARK  129  A    between atoms: _328  and  _329
REMARK  130  A    between atoms: _334  and  _336
REMARK  131  A    between atoms: _336  and  _337
REMARK  132  A    between atoms: _336  and  _339
REMARK  133  A    between atoms: _339  and  _340
REMARK  134  A    between atoms: _345  and  _347
REMARK  135  A    between atoms: _347  and  _348
REMARK  136  A    between atoms: _347  and  _350
REMARK  137  A    between atoms: _350  and  _351
REMARK  138  A    between atoms: _354  and  _356
REMARK  139  A    between atoms: _356  and  _357
REMARK  140  A    between atoms: _356  and  _359
REMARK  141  A    between atoms: _362  and  _364
REMARK  142  A    between atoms: _364  and  _365
REMARK  143  A    between atoms: _367  and  _369
REMARK  144  A    between atoms: _369  and  _370
REMARK  145  A    between atoms: _369  and  _372
REMARK  146  A    between atoms: _372  and  _373
REMARK  147  A    between atoms: _373  and  _374
REMARK  148  A    between atoms: _374  and  _375
REMARK  149  A    between atoms: _375  and  _376
REMARK  150  A    between atoms: _380  and  _382
REMARK  151  A    between atoms: _382  and  _383
REMARK  152  A    between atoms: _382  and  _385
REMARK  153  A    between atoms: _385  and  _386
REMARK  154  A    between atoms: _389  and  _391
REMARK  155  A    between atoms: _391  and  _392
REMARK  156  A    between atoms: _395  and  _397
REMARK  157  A    between atoms: _397  and  _398
REMARK  158  A    between atoms: _400  and  _402
REMARK  159  A    between atoms: _402  and  _403
REMARK  160  A    between atoms: _402  and  _405
REMARK  161  A    between atoms: _405  and  _406
REMARK  162  A    between atoms: _409  and  _411
REMARK  163  A    between atoms: _411  and  _412
REMARK  164  A    between atoms: _411  and  _414
REMARK  165  A    between atoms: _414  and  _415
REMARK  166  A    between atoms: _418  and  _420
REMARK  167  A    between atoms: _420  and  _421
REMARK  168  A    between atoms: _424  and  _426
REMARK  169  A    between atoms: _426  and  _427
REMARK  170  A    between atoms: _426  and  _429
REMARK  171  A    between atoms: _429  and  _430
REMARK  172  A    between atoms: _430  and  _431
REMARK  173  A    between atoms: _434  and  _436
REMARK  174  A    between atoms: _436  and  _437
REMARK  175  A    between atoms: _436  and  _439
REMARK  176  A    between atoms: _442  and  _444
REMARK  177  A    between atoms: _444  and  _445
REMARK  178  A    between atoms: _444  and  _447
REMARK  179  A    between atoms: _447  and  _448
REMARK  180  A    between atoms: _451  and  _453
REMARK  181  A    between atoms: _453  and  _454
REMARK  182  A    between atoms: _456  and  _458
REMARK  183  A    between atoms: _458  and  _459
REMARK  184  A    between atoms: _458  and  _461
REMARK  185  A    between atoms: _464  and  _466
REMARK  186  A    between atoms: _466  and  _467
REMARK  187  A    between atoms: _469  and  _471
REMARK  188  A    between atoms: _471  and  _472
REMARK  189  A    between atoms: _471  and  _474
REMARK  190  A    between atoms: _474  and  _475
REMARK  191  A    between atoms: _478  and  _480
REMARK  192  A    between atoms: _480  and  _481
REMARK  193  A    between atoms: _480  and  _483
REMARK  194  A    between atoms: _483  and  _484
REMARK  195  A    between atoms: _489  and  _491
REMARK  196  A    between atoms: _491  and  _492
REMARK  197  A    between atoms: _491  and  _494
REMARK  198  A    between atoms: _497  and  _499
REMARK  199  A    between atoms: _499  and  _500
REMARK  200  A    between atoms: _499  and  _502
REMARK  201  A    between atoms: _502  and  _503
REMARK  202  A    between atoms: _503  and  _504
REMARK  203  A    between atoms: _509  and  _511
REMARK  204  A    between atoms: _511  and  _512
REMARK  205  A    between atoms: _516  and  _517
REMARK  206  A    between atoms: _522  and  _524
REMARK  207  A    between atoms: _524  and  _525
REMARK  208  A    between atoms: _524  and  _527
REMARK  209  A    between atoms: _527  and  _528
REMARK  210  A    between atoms: _528  and  _529
REMARK  211  A    between atoms: _532  and  _534
REMARK  212  A    between atoms: _534  and  _535
REMARK  213  A    between atoms: _534  and  _537
REMARK  214  A    between atoms: _540  and  _542
REMARK  215  A    between atoms: _542  and  _543
REMARK  216  A    between atoms: _542  and  _545
REMARK  217  A    between atoms: _545  and  _546
REMARK  218  A    between atoms: _550  and  _551
REMARK  219  A    between atoms: _556  and  _558
REMARK  220  A    between atoms: _558  and  _559
REMARK  221  A    between atoms: _558  and  _561
REMARK  222  A    between atoms: _561  and  _562
REMARK  223  A    between atoms: _565  and  _567
REMARK  224  A    between atoms: _567  and  _568
REMARK  225  A    between atoms: _571  and  _573
REMARK  226  A    between atoms: _573  and  _574
REMARK  227  A    between atoms: _573  and  _576
REMARK  228  A    between atoms: _576  and  _577
REMARK  229  A    between atoms: _580  and  _582
REMARK  230  A    between atoms: _582  and  _583
REMARK  231  A    between atoms: _582  and  _585
REMARK  232  A    between atoms: _585  and  _586
REMARK  233  A    between atoms: _588  and  _590
REMARK  234  A    between atoms: _590  and  _591
REMARK  235  A    between atoms: _593  and  _595
REMARK  236  A    between atoms: _595  and  _596
REMARK  237  A    between atoms: _595  and  _598
REMARK  238  A    between atoms: _598  and  _599
REMARK  239  A    between atoms: _602  and  _604
REMARK  240  A    between atoms: _604  and  _605
REMARK  241  A    between atoms: _604  and  _607
REMARK                            x       y       z     vdW  Elec       q    Type
REMARK                         _______ _______ _______ _____ _____    ______ ____
ROOT
ATOM      1  O   HOH     1      -3.678   3.977  10.297  0.00  0.00    +0.000 OA
ENDROOT
TORSDOF 0
REMARK  Name = ../refined-set-2016/4xu1/4xu1_pocket.pdb
REMARK  241 active torsions:
REMARK  status: ('A' for Active; 'I' for Inactive)
REMARK    1  A    between atoms: _1  and  _3
REMARK    2  A    between atoms: _3  and  _4
REMARK    3  A    between atoms: _3  and  _6
REMARK    4  A    between atoms: _6  and  _7
REMARK    5  A    between atoms: _10  and  _12
REMARK    6  A    between atoms: _12  and  _13
REMARK    7  A    between atoms: _15  and  _17
REMARK    8  A    between atoms: _17  and  _18
REMARK    9  A    between atoms: _17  and  _20
REMARK   10  A    between atoms: _20  and  _21
REMARK   11  A    between atoms: _23  and  _25
REMARK   12  A    between atoms: _25  and  _26
REMARK   13  A    between atoms: _25  and  _28
REMARK   14  A    between atoms: _28  and  _29
REMARK   15  A    between atoms: _32  and  _34
REMARK   16  A    between atoms: _34  and  _35
REMARK   17  A    between atoms: _34  and  _37
REMARK   18  A    between atoms: _37  and  _38
REMARK   19  A    between atoms: _43  and  _45
REMARK   20  A    between atoms: _45  and  _46
REMARK   21  A    between atoms: _49  and  _51
REMARK   22  A    between atoms: _51  and  _52
REMARK   23  A    between atoms: _51  and  _54
REMARK   24  A    between atoms: _54  and  _55
REMARK   25  A    between atoms: _58  and  _60
REMARK   26  A    between atoms: _60  and  _61
REMARK   27  A    between atoms: _60  and  _63
REMARK   28  A    between atoms: _63  and  _64
REMARK   29  A    between atoms: _67  and  _69
REMARK   30  A    between atoms: _69  and  _70
REMARK   31  A    between atoms: _69  and  _72
REMARK   32  A    between atoms: _72  and  _73
REMARK   33  A    between atoms: _76  and  _78
REMARK   34  A    between atoms: _78  and  _79
REMARK   35  A    between atoms: _78  and  _81
REMARK   36  A    between atoms: _81  and  _82
REMARK   37  A    between atoms: _85  and  _87
REMARK   38  A    between atoms: _87  and  _88
REMARK   39  A    between atoms: _91  and  _93
REMARK   40  A    between atoms: _93  and  _94
REMARK   41  A    between atoms: _93  and  _96
REMARK   42  A    between atoms: _96  and  _97
REMARK   43  A    between atoms: _97  and  _98
REMARK   44  A    between atoms: _103  and  _105
REMARK   45  A    between atoms: _105  and  _106
REMARK   46  A    between atoms: _105  and  _108
REMARK   47  A    between atoms: _108  and  _109
REMARK   48  A    between atoms: _112  and  _114
REMARK   49  A    between atoms: _114  and  _115
REMARK   50  A    between atoms: _118  and  _120
REMARK   51  A    between atoms: _120  and  _121
REMARK   52  A    between atoms: _123  and  _125
REMARK   53  A    between atoms: _125  and  _126
REMARK   54  A    between atoms: _125  and  _128
REMARK   55  A    between atoms: _128  and  _129
REMARK   56  A    between atoms: _129  and  _130
REMARK   57  A    between atoms: _130  and  _131
REMARK   58  A    between atoms: _140  and  _142
REMARK   59  A    between atoms: _142  and  _143
REMARK   60  A    between atoms: _145  and  _147
REMARK   61  A    between atoms: _147  and  _148
REMARK   62  A    between atoms: _147  and  _150
REMARK   63  A    between atoms: _150  and  _151
REMARK   64  A    between atoms: _151  and  _152
REMARK   65  A    between atoms: _152  and  _153
REMARK   66  A    between atoms: _162  and  _164
REMARK   67  A    between atoms: _164  and  _165
REMARK   68  A    between atoms: _164  and  _167
REMARK   69  A    between atoms: _167  and  _168
REMARK   70  A    between atoms: _173  and  _175
REMARK   71  A    between atoms: _175  and  _176
REMARK   72  A    between atoms: _178  and  _180
REMARK   73  A    between atoms: _180  and  _181
REMARK   74  A    between atoms: _180  and  _183
REMARK   75  A    between atoms: _183  and  _184
REMARK   76  A    between atoms: _184  and  _185
REMARK   77  A    between atoms: _185  and  _186
REMARK   78  A    between atoms: _195  and  _197
REMARK   79  A    between atoms: _197  and  _198
REMARK   80  A    between atoms: _200  and  _202
REMARK   81  A    between atoms: _202  and  _203
REMARK   82  A    between atoms: _202  and  _205
REMARK   83  A    between atoms: _205  and  _206
REMARK   84  A    between atoms: _216  and  _218
REMARK   85  A    between atoms: _218  and  _219
REMARK   86  A    between atoms: _222  and  _224
REMARK   87  A    between atoms: _224  and  _225
REMARK   88  A    between atoms: _228  and  _230
REMARK   89  A    between atoms: _230  and  _231
REMARK   90  A    between atoms: _230  and  _233
REMARK   91  A    between atoms: _233  and  _234
REMARK   92  A    between atoms: _237  and  _239
REMARK   93  A    between atoms: _239  and  _240
REMARK   94  A    between atoms: _243  and  _245
REMARK   95  A    between atoms: _245  and  _246
REMARK   96  A    between atoms: _245  and  _248
REMARK   97  A    between atoms: _248  and  _249
REMARK   98  A    between atoms: _249  and  _250
REMARK   99  A    between atoms: _255  and  _257
REMARK  100  A    between atoms: _257  and  _258
REMARK  101  A    between atoms: _257  and  _260
REMARK  102  A    between atoms: _260  and  _261
REMARK  103  A    between atoms: _264  and  _266
REMARK  104  A    between atoms: _266  and  _267
REMARK  105  A    between atoms: _266  and  _269
REMARK  106  A    between atoms: _269  and  _270
REMARK  107  A    between atoms: _273  and  _275
REMARK  108  A    between atoms: _275  and  _276
REMARK  109  A    between atoms: _275  and  _278
REMARK  110  A    between atoms: _278  and  _279
REMARK  111  A    between atoms: _282  and  _284
REMARK  112  A    between atoms: _284  and  _285
REMARK  113  A    between atoms: _284  and  _287
REMARK  114  A    between atoms: _287  and  _288
REMARK  115  A    between atoms: _290  and  _292
REMARK  116  A    between atoms: _292  and  _293
REMARK  117  A    between atoms: _292  and  _295
REMARK  118  A    between atoms: _298  and  _300
REMARK  119  A    between atoms: _300  and  _301
REMARK  120  A    between atoms: _300  and  _303
REMARK  121  A    between atoms: _303  and  _304
REMARK  122  A    between atoms: _304  and  _305
REMARK  123  A    between atoms: _305  and  _306
REMARK  124  A    between atoms: _306  and  _307
REMARK  125  A    between atoms: _311  and  _313
REMARK  126  A    between atoms: _313  and  _314
REMARK  127  A    between atoms: _313  and  _316
REMARK  128  A    between atoms: _316  and  _317
REMARK  129  A    between atoms: _328  and  _329
REMARK  130  A    between atoms: _334  and  _336
REMARK  131  A    between atoms: _336  and  _337
REMARK  132  A    between atoms: _336  and  _339
REMARK  133  A    between atoms: _339  and  _340
REMARK  134  A    between atoms: _345  and  _347
REMARK  135  A    between atoms: _347  and  _348
REMARK  136  A    between atoms: _347  and  _350
REMARK  137  A    between atoms: _350  and  _351
REMARK  138  A    between atoms: _354  and  _356
REMARK  139  A    between atoms: _356  and  _357
REMARK  140  A    between atoms: _356  and  _359
REMARK  141  A    between atoms: _362  and  _364
REMARK  142  A    between atoms: _364  and  _365
REMARK  143  A    between atoms: _367  and  _369
REMARK  144  A    between atoms: _369  and  _370
REMARK  145  A    between atoms: _369  and  _372
REMARK  146  A    between atoms: _372  and  _373
REMARK  147  A    between atoms: _373  and  _374
REMARK  148  A    between atoms: _374  and  _375
REMARK  149  A    between atoms: _375  and  _376
REMARK  150  A    between atoms: _380  and  _382
REMARK  151  A    between atoms: _382  and  _383
REMARK  152  A    between atoms: _382  and  _385
REMARK  153  A    between atoms: _385  and  _386
REMARK  154  A    between atoms: _389  and  _391
REMARK  155  A    between atoms: _391  and  _392
REMARK  156  A    between atoms: _395  and  _397
REMARK  157  A    between atoms: _397  and  _398
REMARK  158  A    between atoms: _400  and  _402
REMARK  159  A    between atoms: _402  and  _403
REMARK  160  A    between atoms: _402  and  _405
REMARK  161  A    between atoms: _405  and  _406
REMARK  162  A    between atoms: _409  and  _411
REMARK  163  A    between atoms: _411  and  _412
REMARK  164  A    between atoms: _411  and  _414
REMARK  165  A    between atoms: _414  and  _415
REMARK  166  A    between atoms: _418  and  _420
REMARK  167  A    between atoms: _420  and  _421
REMARK  168  A    between atoms: _424  and  _426
REMARK  169  A    between atoms: _426  and  _427
REMARK  170  A    between atoms: _426  and  _429
REMARK  171  A    between atoms: _429  and  _430
REMARK  172  A    between atoms: _430  and  _431
REMARK  173  A    between atoms: _434  and  _436
REMARK  174  A    between atoms: _436  and  _437
REMARK  175  A    between atoms: _436  and  _439
REMARK  176  A    between atoms: _442  and  _444
REMARK  177  A    between atoms: _444  and  _445
REMARK  178  A    between atoms: _444  and  _447
REMARK  179  A    between atoms: _447  and  _448
REMARK  180  A    between atoms: _451  and  _453
REMARK  181  A    between atoms: _453  and  _454
REMARK  182  A    between atoms: _456  and  _458
REMARK  183  A    between atoms: _458  and  _459
REMARK  184  A    between atoms: _458  and  _461
REMARK  185  A    between atoms: _464  and  _466
REMARK  186  A    between atoms: _466  and  _467
REMARK  187  A    between atoms: _469  and  _471
REMARK  188  A    between atoms: _471  and  _472
REMARK  189  A    between atoms: _471  and  _474
REMARK  190  A    between atoms: _474  and  _475
REMARK  191  A    between atoms: _478  and  _480
REMARK  192  A    between atoms: _480  and  _481
REMARK  193  A    between atoms: _480  and  _483
REMARK  194  A    between atoms: _483  and  _484
REMARK  195  A    between atoms: _489  and  _491
REMARK  196  A    between atoms: _491  and  _492
REMARK  197  A    between atoms: _491  and  _494
REMARK  198  A    between atoms: _497  and  _499
REMARK  199  A    between atoms: _499  and  _500
REMARK  200  A    between atoms: _499  and  _502
REMARK  201  A    between atoms: _502  and  _503
REMARK  202  A    between atoms: _503  and  _504
REMARK  203  A    between atoms: _509  and  _511
REMARK  204  A    between atoms: _511  and  _512
REMARK  205  A    between atoms: _516  and  _517
REMARK  206  A    between atoms: _522  and  _524
REMARK  207  A    between atoms: _524  and  _525
REMARK  208  A    between atoms: _524  and  _527
REMARK  209  A    between atoms: _527  and  _528
REMARK  210  A    between atoms: _528  and  _529
REMARK  211  A    between atoms: _532  and  _534
REMARK  212  A    between atoms: _534  and  _535
REMARK  213  A    between atoms: _534  and  _537
REMARK  214  A    between atoms: _540  and  _542
REMARK  215  A    between atoms: _542  and  _543
REMARK  216  A    between atoms: _542  and  _545
REMARK  217  A    between atoms: _545  and  _546
REMARK  218  A    between atoms: _550  and  _551
REMARK  219  A    between atoms: _556  and  _558
REMARK  220  A    between atoms: _558  and  _559
REMARK  221  A    between atoms: _558  and  _561
REMARK  222  A    between atoms: _561  and  _562
REMARK  223  A    between atoms: _565  and  _567
REMARK  224  A    between atoms: _567  and  _568
REMARK  225  A    between atoms: _571  and  _573
REMARK  226  A    between atoms: _573  and  _574
REMARK  227  A    between atoms: _573  and  _576
REMARK  228  A    between atoms: _576  and  _577
REMARK  229  A    between atoms: _580  and  _582
REMARK  230  A    between atoms: _582  and  _583
REMARK  231  A    between atoms: _582  and  _585
REMARK  232  A    between atoms: _585  and  _586
REMARK  233  A    between atoms: _588  and  _590
REMARK  234  A    between atoms: _590  and  _591
REMARK  235  A    between atoms: _593  and  _595
REMARK  236  A    between atoms: _595  and  _596
REMARK  237  A    between atoms: _595  and  _598
REMARK  238  A    between atoms: _598  and  _599
REMARK  239  A    between atoms: _602  and  _604
REMARK  240  A    between atoms: _604  and  _605
REMARK  241  A    between atoms: _604  and  _607
REMARK                            x       y       z     vdW  Elec       q    Type
REMARK                         _______ _______ _______ _____ _____    ______ ____
ROOT
ATOM      1  O   HOH     1      -3.769 -13.755   5.406  0.00  0.00    +0.000 OA
ENDROOT
TORSDOF 0
REMARK  Name = ../refined-set-2016/4xu1/4xu1_pocket.pdb
REMARK  241 active torsions:
REMARK  status: ('A' for Active; 'I' for Inactive)
REMARK    1  A    between atoms: _1  and  _3
REMARK    2  A    between atoms: _3  and  _4
REMARK    3  A    between atoms: _3  and  _6
REMARK    4  A    between atoms: _6  and  _7
REMARK    5  A    between atoms: _10  and  _12
REMARK    6  A    between atoms: _12  and  _13
REMARK    7  A    between atoms: _15  and  _17
REMARK    8  A    between atoms: _17  and  _18
REMARK    9  A    between atoms: _17  and  _20
REMARK   10  A    between atoms: _20  and  _21
REMARK   11  A    between atoms: _23  and  _25
REMARK   12  A    between atoms: _25  and  _26
REMARK   13  A    between atoms: _25  and  _28
REMARK   14  A    between atoms: _28  and  _29
REMARK   15  A    between atoms: _32  and  _34
REMARK   16  A    between atoms: _34  and  _35
REMARK   17  A    between atoms: _34  and  _37
REMARK   18  A    between atoms: _37  and  _38
REMARK   19  A    between atoms: _43  and  _45
REMARK   20  A    between atoms: _45  and  _46
REMARK   21  A    between atoms: _49  and  _51
REMARK   22  A    between atoms: _51  and  _52
REMARK   23  A    between atoms: _51  and  _54
REMARK   24  A    between atoms: _54  and  _55
REMARK   25  A    between atoms: _58  and  _60
REMARK   26  A    between atoms: _60  and  _61
REMARK   27  A    between atoms: _60  and  _63
REMARK   28  A    between atoms: _63  and  _64
REMARK   29  A    between atoms: _67  and  _69
REMARK   30  A    between atoms: _69  and  _70
REMARK   31  A    between atoms: _69  and  _72
REMARK   32  A    between atoms: _72  and  _73
REMARK   33  A    between atoms: _76  and  _78
REMARK   34  A    between atoms: _78  and  _79
REMARK   35  A    between atoms: _78  and  _81
REMARK   36  A    between atoms: _81  and  _82
REMARK   37  A    between atoms: _85  and  _87
REMARK   38  A    between atoms: _87  and  _88
REMARK   39  A    between atoms: _91  and  _93
REMARK   40  A    between atoms: _93  and  _94
REMARK   41  A    between atoms: _93  and  _96
REMARK   42  A    between atoms: _96  and  _97
REMARK   43  A    between atoms: _97  and  _98
REMARK   44  A    between atoms: _103  and  _105
REMARK   45  A    between atoms: _105  and  _106
REMARK   46  A    between atoms: _105  and  _108
REMARK   47  A    between atoms: _108  and  _109
REMARK   48  A    between atoms: _112  and  _114
REMARK   49  A    between atoms: _114  and  _115
REMARK   50  A    between atoms: _118  and  _120
REMARK   51  A    between atoms: _120  and  _121
REMARK   52  A    between atoms: _123  and  _125
REMARK   53  A    between atoms: _125  and  _126
REMARK   54  A    between atoms: _125  and  _128
REMARK   55  A    between atoms: _128  and  _129
REMARK   56  A    between atoms: _129  and  _130
REMARK   57  A    between atoms: _130  and  _131
REMARK   58  A    between atoms: _140  and  _142
REMARK   59  A    between atoms: _142  and  _143
REMARK   60  A    between atoms: _145  and  _147
REMARK   61  A    between atoms: _147  and  _148
REMARK   62  A    between atoms: _147  and  _150
REMARK   63  A    between atoms: _150  and  _151
REMARK   64  A    between atoms: _151  and  _152
REMARK   65  A    between atoms: _152  and  _153
REMARK   66  A    between atoms: _162  and  _164
REMARK   67  A    between atoms: _164  and  _165
REMARK   68  A    between atoms: _164  and  _167
REMARK   69  A    between atoms: _167  and  _168
REMARK   70  A    between atoms: _173  and  _175
REMARK   71  A    between atoms: _175  and  _176
REMARK   72  A    between atoms: _178  and  _180
REMARK   73  A    between atoms: _180  and  _181
REMARK   74  A    between atoms: _180  and  _183
REMARK   75  A    between atoms: _183  and  _184
REMARK   76  A    between atoms: _184  and  _185
REMARK   77  A    between atoms: _185  and  _186
REMARK   78  A    between atoms: _195  and  _197
REMARK   79  A    between atoms: _197  and  _198
REMARK   80  A    between atoms: _200  and  _202
REMARK   81  A    between atoms: _202  and  _203
REMARK   82  A    between atoms: _202  and  _205
REMARK   83  A    between atoms: _205  and  _206
REMARK   84  A    between atoms: _216  and  _218
REMARK   85  A    between atoms: _218  and  _219
REMARK   86  A    between atoms: _222  and  _224
REMARK   87  A    between atoms: _224  and  _225
REMARK   88  A    between atoms: _228  and  _230
REMARK   89  A    between atoms: _230  and  _231
REMARK   90  A    between atoms: _230  and  _233
REMARK   91  A    between atoms: _233  and  _234
REMARK   92  A    between atoms: _237  and  _239
REMARK   93  A    between atoms: _239  and  _240
REMARK   94  A    between atoms: _243  and  _245
REMARK   95  A    between atoms: _245  and  _246
REMARK   96  A    between atoms: _245  and  _248
REMARK   97  A    between atoms: _248  and  _249
REMARK   98  A    between atoms: _249  and  _250
REMARK   99  A    between atoms: _255  and  _257
REMARK  100  A    between atoms: _257  and  _258
REMARK  101  A    between atoms: _257  and  _260
REMARK  102  A    between atoms: _260  and  _261
REMARK  103  A    between atoms: _264  and  _266
REMARK  104  A    between atoms: _266  and  _267
REMARK  105  A    between atoms: _266  and  _269
REMARK  106  A    between atoms: _269  and  _270
REMARK  107  A    between atoms: _273  and  _275
REMARK  108  A    between atoms: _275  and  _276
REMARK  109  A    between atoms: _275  and  _278
REMARK  110  A    between atoms: _278  and  _279
REMARK  111  A    between atoms: _282  and  _284
REMARK  112  A    between atoms: _284  and  _285
REMARK  113  A    between atoms: _284  and  _287
REMARK  114  A    between atoms: _287  and  _288
REMARK  115  A    between atoms: _290  and  _292
REMARK  116  A    between atoms: _292  and  _293
REMARK  117  A    between atoms: _292  and  _295
REMARK  118  A    between atoms: _298  and  _300
REMARK  119  A    between atoms: _300  and  _301
REMARK  120  A    between atoms: _300  and  _303
REMARK  121  A    between atoms: _303  and  _304
REMARK  122  A    between atoms: _304  and  _305
REMARK  123  A    between atoms: _305  and  _306
REMARK  124  A    between atoms: _306  and  _307
REMARK  125  A    between atoms: _311  and  _313
REMARK  126  A    between atoms: _313  and  _314
REMARK  127  A    between atoms: _313  and  _316
REMARK  128  A    between atoms: _316  and  _317
REMARK  129  A    between atoms: _328  and  _329
REMARK  130  A    between atoms: _334  and  _336
REMARK  131  A    between atoms: _336  and  _337
REMARK  132  A    between atoms: _336  and  _339
REMARK  133  A    between atoms: _339  and  _340
REMARK  134  A    between atoms: _345  and  _347
REMARK  135  A    between atoms: _347  and  _348
REMARK  136  A    between atoms: _347  and  _350
REMARK  137  A    between atoms: _350  and  _351
REMARK  138  A    between atoms: _354  and  _356
REMARK  139  A    between atoms: _356  and  _357
REMARK  140  A    between atoms: _356  and  _359
REMARK  141  A    between atoms: _362  and  _364
REMARK  142  A    between atoms: _364  and  _365
REMARK  143  A    between atoms: _367  and  _369
REMARK  144  A    between atoms: _369  and  _370
REMARK  145  A    between atoms: _369  and  _372
REMARK  146  A    between atoms: _372  and  _373
REMARK  147  A    between atoms: _373  and  _374
REMARK  148  A    between atoms: _374  and  _375
REMARK  149  A    between atoms: _375  and  _376
REMARK  150  A    between atoms: _380  and  _382
REMARK  151  A    between atoms: _382  and  _383
REMARK  152  A    between atoms: _382  and  _385
REMARK  153  A    between atoms: _385  and  _386
REMARK  154  A    between atoms: _389  and  _391
REMARK  155  A    between atoms: _391  and  _392
REMARK  156  A    between atoms: _395  and  _397
REMARK  157  A    between atoms: _397  and  _398
REMARK  158  A    between atoms: _400  and  _402
REMARK  159  A    between atoms: _402  and  _403
REMARK  160  A    between atoms: _402  and  _405
REMARK  161  A    between atoms: _405  and  _406
REMARK  162  A    between atoms: _409  and  _411
REMARK  163  A    between atoms: _411  and  _412
REMARK  164  A    between atoms: _411  and  _414
REMARK  165  A    between atoms: _414  and  _415
REMARK  166  A    between atoms: _418  and  _420
REMARK  167  A    between atoms: _420  and  _421
REMARK  168  A    between atoms: _424  and  _426
REMARK  169  A    between atoms: _426  and  _427
REMARK  170  A    between atoms: _426  and  _429
REMARK  171  A    between atoms: _429  and  _430
REMARK  172  A    between atoms: _430  and  _431
REMARK  173  A    between atoms: _434  and  _436
REMARK  174  A    between atoms: _436  and  _437
REMARK  175  A    between atoms: _436  and  _439
REMARK  176  A    between atoms: _442  and  _444
REMARK  177  A    between atoms: _444  and  _445
REMARK  178  A    between atoms: _444  and  _447
REMARK  179  A    between atoms: _447  and  _448
REMARK  180  A    between atoms: _451  and  _453
REMARK  181  A    between atoms: _453  and  _454
REMARK  182  A    between atoms: _456  and  _458
REMARK  183  A    between atoms: _458  and  _459
REMARK  184  A    between atoms: _458  and  _461
REMARK  185  A    between atoms: _464  and  _466
REMARK  186  A    between atoms: _466  and  _467
REMARK  187  A    between atoms: _469  and  _471
REMARK  188  A    between atoms: _471  and  _472
REMARK  189  A    between atoms: _471  and  _474
REMARK  190  A    between atoms: _474  and  _475
REMARK  191  A    between atoms: _478  and  _480
REMARK  192  A    between atoms: _480  and  _481
REMARK  193  A    between atoms: _480  and  _483
REMARK  194  A    between atoms: _483  and  _484
REMARK  195  A    between atoms: _489  and  _491
REMARK  196  A    between atoms: _491  and  _492
REMARK  197  A    between atoms: _491  and  _494
REMARK  198  A    between atoms: _497  and  _499
REMARK  199  A    between atoms: _499  and  _500
REMARK  200  A    between atoms: _499  and  _502
REMARK  201  A    between atoms: _502  and  _503
REMARK  202  A    between atoms: _503  and  _504
REMARK  203  A    between atoms: _509  and  _511
REMARK  204  A    between atoms: _511  and  _512
REMARK  205  A    between atoms: _516  and  _517
REMARK  206  A    between atoms: _522  and  _524
REMARK  207  A    between atoms: _524  and  _525
REMARK  208  A    between atoms: _524  and  _527
REMARK  209  A    between atoms: _527  and  _528
REMARK  210  A    between atoms: _528  and  _529
REMARK  211  A    between atoms: _532  and  _534
REMARK  212  A    between atoms: _534  and  _535
REMARK  213  A    between atoms: _534  and  _537
REMARK  214  A    between atoms: _540  and  _542
REMARK  215  A    between atoms: _542  and  _543
REMARK  216  A    between atoms: _542  and  _545
REMARK  217  A    between atoms: _545  and  _546
REMARK  218  A    between atoms: _550  and  _551
REMARK  219  A    between atoms: _556  and  _558
REMARK  220  A    between atoms: _558  and  _559
REMARK  221  A    between atoms: _558  and  _561
REMARK  222  A    between atoms: _561  and  _562
REMARK  223  A    between atoms: _565  and  _567
REMARK  224  A    between atoms: _567  and  _568
REMARK  225  A    between atoms: _571  and  _573
REMARK  226  A    between atoms: _573  and  _574
REMARK  227  A    between atoms: _573  and  _576
REMARK  228  A    between atoms: _576  and  _577
REMARK  229  A    between atoms: _580  and  _582
REMARK  230  A    between atoms: _582  and  _583
REMARK  231  A    between atoms: _582  and  _585
REMARK  232  A    between atoms: _585  and  _586
REMARK  233  A    between atoms: _588  and  _590
REMARK  234  A    between atoms: _590  and  _591
REMARK  235  A    between atoms: _593  and  _595
REMARK  236  A    between atoms: _595  and  _596
REMARK  237  A    between atoms: _595  and  _598
REMARK  238  A    between atoms: _598  and  _599
REMARK  239  A    between atoms: _602  and  _604
REMARK  240  A    between atoms: _604  and  _605
REMARK  241  A    between atoms: _604  and  _607
REMARK                            x       y       z     vdW  Elec       q    Type
REMARK                         _______ _______ _______ _____ _____    ______ ____
ROOT
ATOM      1  O   HOH     1       0.294  -1.501  18.926  0.00  0.00    +0.000 OA
ENDROOT
TORSDOF 0
REMARK  Name = ../refined-set-2016/4xu1/4xu1_pocket.pdb
REMARK  241 active torsions:
REMARK  status: ('A' for Active; 'I' for Inactive)
REMARK    1  A    between atoms: _1  and  _3
REMARK    2  A    between atoms: _3  and  _4
REMARK    3  A    between atoms: _3  and  _6
REMARK    4  A    between atoms: _6  and  _7
REMARK    5  A    between atoms: _10  and  _12
REMARK    6  A    between atoms: _12  and  _13
REMARK    7  A    between atoms: _15  and  _17
REMARK    8  A    between atoms: _17  and  _18
REMARK    9  A    between atoms: _17  and  _20
REMARK   10  A    between atoms: _20  and  _21
REMARK   11  A    between atoms: _23  and  _25
REMARK   12  A    between atoms: _25  and  _26
REMARK   13  A    between atoms: _25  and  _28
REMARK   14  A    between atoms: _28  and  _29
REMARK   15  A    between atoms: _32  and  _34
REMARK   16  A    between atoms: _34  and  _35
REMARK   17  A    between atoms: _34  and  _37
REMARK   18  A    between atoms: _37  and  _38
REMARK   19  A    between atoms: _43  and  _45
REMARK   20  A    between atoms: _45  and  _46
REMARK   21  A    between atoms: _49  and  _51
REMARK   22  A    between atoms: _51  and  _52
REMARK   23  A    between atoms: _51  and  _54
REMARK   24  A    between atoms: _54  and  _55
REMARK   25  A    between atoms: _58  and  _60
REMARK   26  A    between atoms: _60  and  _61
REMARK   27  A    between atoms: _60  and  _63
REMARK   28  A    between atoms: _63  and  _64
REMARK   29  A    between atoms: _67  and  _69
REMARK   30  A    between atoms: _69  and  _70
REMARK   31  A    between atoms: _69  and  _72
REMARK   32  A    between atoms: _72  and  _73
REMARK   33  A    between atoms: _76  and  _78
REMARK   34  A    between atoms: _78  and  _79
REMARK   35  A    between atoms: _78  and  _81
REMARK   36  A    between atoms: _81  and  _82
REMARK   37  A    between atoms: _85  and  _87
REMARK   38  A    between atoms: _87  and  _88
REMARK   39  A    between atoms: _91  and  _93
REMARK   40  A    between atoms: _93  and  _94
REMARK   41  A    between atoms: _93  and  _96
REMARK   42  A    between atoms: _96  and  _97
REMARK   43  A    between atoms: _97  and  _98
REMARK   44  A    between atoms: _103  and  _105
REMARK   45  A    between atoms: _105  and  _106
REMARK   46  A    between atoms: _105  and  _108
REMARK   47  A    between atoms: _108  and  _109
REMARK   48  A    between atoms: _112  and  _114
REMARK   49  A    between atoms: _114  and  _115
REMARK   50  A    between atoms: _118  and  _120
REMARK   51  A    between atoms: _120  and  _121
REMARK   52  A    between atoms: _123  and  _125
REMARK   53  A    between atoms: _125  and  _126
REMARK   54  A    between atoms: _125  and  _128
REMARK   55  A    between atoms: _128  and  _129
REMARK   56  A    between atoms: _129  and  _130
REMARK   57  A    between atoms: _130  and  _131
REMARK   58  A    between atoms: _140  and  _142
REMARK   59  A    between atoms: _142  and  _143
REMARK   60  A    between atoms: _145  and  _147
REMARK   61  A    between atoms: _147  and  _148
REMARK   62  A    between atoms: _147  and  _150
REMARK   63  A    between atoms: _150  and  _151
REMARK   64  A    between atoms: _151  and  _152
REMARK   65  A    between atoms: _152  and  _153
REMARK   66  A    between atoms: _162  and  _164
REMARK   67  A    between atoms: _164  and  _165
REMARK   68  A    between atoms: _164  and  _167
REMARK   69  A    between atoms: _167  and  _168
REMARK   70  A    between atoms: _173  and  _175
REMARK   71  A    between atoms: _175  and  _176
REMARK   72  A    between atoms: _178  and  _180
REMARK   73  A    between atoms: _180  and  _181
REMARK   74  A    between atoms: _180  and  _183
REMARK   75  A    between atoms: _183  and  _184
REMARK   76  A    between atoms: _184  and  _185
REMARK   77  A    between atoms: _185  and  _186
REMARK   78  A    between atoms: _195  and  _197
REMARK   79  A    between atoms: _197  and  _198
REMARK   80  A    between atoms: _200  and  _202
REMARK   81  A    between atoms: _202  and  _203
REMARK   82  A    between atoms: _202  and  _205
REMARK   83  A    between atoms: _205  and  _206
REMARK   84  A    between atoms: _216  and  _218
REMARK   85  A    between atoms: _218  and  _219
REMARK   86  A    between atoms: _222  and  _224
REMARK   87  A    between atoms: _224  and  _225
REMARK   88  A    between atoms: _228  and  _230
REMARK   89  A    between atoms: _230  and  _231
REMARK   90  A    between atoms: _230  and  _233
REMARK   91  A    between atoms: _233  and  _234
REMARK   92  A    between atoms: _237  and  _239
REMARK   93  A    between atoms: _239  and  _240
REMARK   94  A    between atoms: _243  and  _245
REMARK   95  A    between atoms: _245  and  _246
REMARK   96  A    between atoms: _245  and  _248
REMARK   97  A    between atoms: _248  and  _249
REMARK   98  A    between atoms: _249  and  _250
REMARK   99  A    between atoms: _255  and  _257
REMARK  100  A    between atoms: _257  and  _258
REMARK  101  A    between atoms: _257  and  _260
REMARK  102  A    between atoms: _260  and  _261
REMARK  103  A    between atoms: _264  and  _266
REMARK  104  A    between atoms: _266  and  _267
REMARK  105  A    between atoms: _266  and  _269
REMARK  106  A    between atoms: _269  and  _270
REMARK  107  A    between atoms: _273  and  _275
REMARK  108  A    between atoms: _275  and  _276
REMARK  109  A    between atoms: _275  and  _278
REMARK  110  A    between atoms: _278  and  _279
REMARK  111  A    between atoms: _282  and  _284
REMARK  112  A    between atoms: _284  and  _285
REMARK  113  A    between atoms: _284  and  _287
REMARK  114  A    between atoms: _287  and  _288
REMARK  115  A    between atoms: _290  and  _292
REMARK  116  A    between atoms: _292  and  _293
REMARK  117  A    between atoms: _292  and  _295
REMARK  118  A    between atoms: _298  and  _300
REMARK  119  A    between atoms: _300  and  _301
REMARK  120  A    between atoms: _300  and  _303
REMARK  121  A    between atoms: _303  and  _304
REMARK  122  A    between atoms: _304  and  _305
REMARK  123  A    between atoms: _305  and  _306
REMARK  124  A    between atoms: _306  and  _307
REMARK  125  A    between atoms: _311  and  _313
REMARK  126  A    between atoms: _313  and  _314
REMARK  127  A    between atoms: _313  and  _316
REMARK  128  A    between atoms: _316  and  _317
REMARK  129  A    between atoms: _328  and  _329
REMARK  130  A    between atoms: _334  and  _336
REMARK  131  A    between atoms: _336  and  _337
REMARK  132  A    between atoms: _336  and  _339
REMARK  133  A    between atoms: _339  and  _340
REMARK  134  A    between atoms: _345  and  _347
REMARK  135  A    between atoms: _347  and  _348
REMARK  136  A    between atoms: _347  and  _350
REMARK  137  A    between atoms: _350  and  _351
REMARK  138  A    between atoms: _354  and  _356
REMARK  139  A    between atoms: _356  and  _357
REMARK  140  A    between atoms: _356  and  _359
REMARK  141  A    between atoms: _362  and  _364
REMARK  142  A    between atoms: _364  and  _365
REMARK  143  A    between atoms: _367  and  _369
REMARK  144  A    between atoms: _369  and  _370
REMARK  145  A    between atoms: _369  and  _372
REMARK  146  A    between atoms: _372  and  _373
REMARK  147  A    between atoms: _373  and  _374
REMARK  148  A    between atoms: _374  and  _375
REMARK  149  A    between atoms: _375  and  _376
REMARK  150  A    between atoms: _380  and  _382
REMARK  151  A    between atoms: _382  and  _383
REMARK  152  A    between atoms: _382  and  _385
REMARK  153  A    between atoms: _385  and  _386
REMARK  154  A    between atoms: _389  and  _391
REMARK  155  A    between atoms: _391  and  _392
REMARK  156  A    between atoms: _395  and  _397
REMARK  157  A    between atoms: _397  and  _398
REMARK  158  A    between atoms: _400  and  _402
REMARK  159  A    between atoms: _402  and  _403
REMARK  160  A    between atoms: _402  and  _405
REMARK  161  A    between atoms: _405  and  _406
REMARK  162  A    between atoms: _409  and  _411
REMARK  163  A    between atoms: _411  and  _412
REMARK  164  A    between atoms: _411  and  _414
REMARK  165  A    between atoms: _414  and  _415
REMARK  166  A    between atoms: _418  and  _420
REMARK  167  A    between atoms: _420  and  _421
REMARK  168  A    between atoms: _424  and  _426
REMARK  169  A    between atoms: _426  and  _427
REMARK  170  A    between atoms: _426  and  _429
REMARK  171  A    between atoms: _429  and  _430
REMARK  172  A    between atoms: _430  and  _431
REMARK  173  A    between atoms: _434  and  _436
REMARK  174  A    between atoms: _436  and  _437
REMARK  175  A    between atoms: _436  and  _439
REMARK  176  A    between atoms: _442  and  _444
REMARK  177  A    between atoms: _444  and  _445
REMARK  178  A    between atoms: _444  and  _447
REMARK  179  A    between atoms: _447  and  _448
REMARK  180  A    between atoms: _451  and  _453
REMARK  181  A    between atoms: _453  and  _454
REMARK  182  A    between atoms: _456  and  _458
REMARK  183  A    between atoms: _458  and  _459
REMARK  184  A    between atoms: _458  and  _461
REMARK  185  A    between atoms: _464  and  _466
REMARK  186  A    between atoms: _466  and  _467
REMARK  187  A    between atoms: _469  and  _471
REMARK  188  A    between atoms: _471  and  _472
REMARK  189  A    between atoms: _471  and  _474
REMARK  190  A    between atoms: _474  and  _475
REMARK  191  A    between atoms: _478  and  _480
REMARK  192  A    between atoms: _480  and  _481
REMARK  193  A    between atoms: _480  and  _483
REMARK  194  A    between atoms: _483  and  _484
REMARK  195  A    between atoms: _489  and  _491
REMARK  196  A    between atoms: _491  and  _492
REMARK  197  A    between atoms: _491  and  _494
REMARK  198  A    between atoms: _497  and  _499
REMARK  199  A    between atoms: _499  and  _500
REMARK  200  A    between atoms: _499  and  _502
REMARK  201  A    between atoms: _502  and  _503
REMARK  202  A    between atoms: _503  and  _504
REMARK  203  A    between atoms: _509  and  _511
REMARK  204  A    between atoms: _511  and  _512
REMARK  205  A    between atoms: _516  and  _517
REMARK  206  A    between atoms: _522  and  _524
REMARK  207  A    between atoms: _524  and  _525
REMARK  208  A    between atoms: _524  and  _527
REMARK  209  A    between atoms: _527  and  _528
REMARK  210  A    between atoms: _528  and  _529
REMARK  211  A    between atoms: _532  and  _534
REMARK  212  A    between atoms: _534  and  _535
REMARK  213  A    between atoms: _534  and  _537
REMARK  214  A    between atoms: _540  and  _542
REMARK  215  A    between atoms: _542  and  _543
REMARK  216  A    between atoms: _542  and  _545
REMARK  217  A    between atoms: _545  and  _546
REMARK  218  A    between atoms: _550  and  _551
REMARK  219  A    between atoms: _556  and  _558
REMARK  220  A    between atoms: _558  and  _559
REMARK  221  A    between atoms: _558  and  _561
REMARK  222  A    between atoms: _561  and  _562
REMARK  223  A    between atoms: _565  and  _567
REMARK  224  A    between atoms: _567  and  _568
REMARK  225  A    between atoms: _571  and  _573
REMARK  226  A    between atoms: _573  and  _574
REMARK  227  A    between atoms: _573  and  _576
REMARK  228  A    between atoms: _576  and  _577
REMARK  229  A    between atoms: _580  and  _582
REMARK  230  A    between atoms: _582  and  _583
REMARK  231  A    between atoms: _582  and  _585
REMARK  232  A    between atoms: _585  and  _586
REMARK  233  A    between atoms: _588  and  _590
REMARK  234  A    between atoms: _590  and  _591
REMARK  235  A    between atoms: _593  and  _595
REMARK  236  A    between atoms: _595  and  _596
REMARK  237  A    between atoms: _595  and  _598
REMARK  238  A    between atoms: _598  and  _599
REMARK  239  A    between atoms: _602  and  _604
REMARK  240  A    between atoms: _604  and  _605
REMARK  241  A    between atoms: _604  and  _607
REMARK                            x       y       z     vdW  Elec       q    Type
REMARK                         _______ _______ _______ _____ _____    ______ ____
ROOT
ATOM      1  O   HOH     1      -9.076   0.189   9.326  0.00  0.00    +0.000 OA
ENDROOT
TORSDOF 0
REMARK  Name = ../refined-set-2016/4xu1/4xu1_pocket.pdb
REMARK  241 active torsions:
REMARK  status: ('A' for Active; 'I' for Inactive)
REMARK    1  A    between atoms: _1  and  _3
REMARK    2  A    between atoms: _3  and  _4
REMARK    3  A    between atoms: _3  and  _6
REMARK    4  A    between atoms: _6  and  _7
REMARK    5  A    between atoms: _10  and  _12
REMARK    6  A    between atoms: _12  and  _13
REMARK    7  A    between atoms: _15  and  _17
REMARK    8  A    between atoms: _17  and  _18
REMARK    9  A    between atoms: _17  and  _20
REMARK   10  A    between atoms: _20  and  _21
REMARK   11  A    between atoms: _23  and  _25
REMARK   12  A    between atoms: _25  and  _26
REMARK   13  A    between atoms: _25  and  _28
REMARK   14  A    between atoms: _28  and  _29
REMARK   15  A    between atoms: _32  and  _34
REMARK   16  A    between atoms: _34  and  _35
REMARK   17  A    between atoms: _34  and  _37
REMARK   18  A    between atoms: _37  and  _38
REMARK   19  A    between atoms: _43  and  _45
REMARK   20  A    between atoms: _45  and  _46
REMARK   21  A    between atoms: _49  and  _51
REMARK   22  A    between atoms: _51  and  _52
REMARK   23  A    between atoms: _51  and  _54
REMARK   24  A    between atoms: _54  and  _55
REMARK   25  A    between atoms: _58  and  _60
REMARK   26  A    between atoms: _60  and  _61
REMARK   27  A    between atoms: _60  and  _63
REMARK   28  A    between atoms: _63  and  _64
REMARK   29  A    between atoms: _67  and  _69
REMARK   30  A    between atoms: _69  and  _70
REMARK   31  A    between atoms: _69  and  _72
REMARK   32  A    between atoms: _72  and  _73
REMARK   33  A    between atoms: _76  and  _78
REMARK   34  A    between atoms: _78  and  _79
REMARK   35  A    between atoms: _78  and  _81
REMARK   36  A    between atoms: _81  and  _82
REMARK   37  A    between atoms: _85  and  _87
REMARK   38  A    between atoms: _87  and  _88
REMARK   39  A    between atoms: _91  and  _93
REMARK   40  A    between atoms: _93  and  _94
REMARK   41  A    between atoms: _93  and  _96
REMARK   42  A    between atoms: _96  and  _97
REMARK   43  A    between atoms: _97  and  _98
REMARK   44  A    between atoms: _103  and  _105
REMARK   45  A    between atoms: _105  and  _106
REMARK   46  A    between atoms: _105  and  _108
REMARK   47  A    between atoms: _108  and  _109
REMARK   48  A    between atoms: _112  and  _114
REMARK   49  A    between atoms: _114  and  _115
REMARK   50  A    between atoms: _118  and  _120
REMARK   51  A    between atoms: _120  and  _121
REMARK   52  A    between atoms: _123  and  _125
REMARK   53  A    between atoms: _125  and  _126
REMARK   54  A    between atoms: _125  and  _128
REMARK   55  A    between atoms: _128  and  _129
REMARK   56  A    between atoms: _129  and  _130
REMARK   57  A    between atoms: _130  and  _131
REMARK   58  A    between atoms: _140  and  _142
REMARK   59  A    between atoms: _142  and  _143
REMARK   60  A    between atoms: _145  and  _147
REMARK   61  A    between atoms: _147  and  _148
REMARK   62  A    between atoms: _147  and  _150
REMARK   63  A    between atoms: _150  and  _151
REMARK   64  A    between atoms: _151  and  _152
REMARK   65  A    between atoms: _152  and  _153
REMARK   66  A    between atoms: _162  and  _164
REMARK   67  A    between atoms: _164  and  _165
REMARK   68  A    between atoms: _164  and  _167
REMARK   69  A    between atoms: _167  and  _168
REMARK   70  A    between atoms: _173  and  _175
REMARK   71  A    between atoms: _175  and  _176
REMARK   72  A    between atoms: _178  and  _180
REMARK   73  A    between atoms: _180  and  _181
REMARK   74  A    between atoms: _180  and  _183
REMARK   75  A    between atoms: _183  and  _184
REMARK   76  A    between atoms: _184  and  _185
REMARK   77  A    between atoms: _185  and  _186
REMARK   78  A    between atoms: _195  and  _197
REMARK   79  A    between atoms: _197  and  _198
REMARK   80  A    between atoms: _200  and  _202
REMARK   81  A    between atoms: _202  and  _203
REMARK   82  A    between atoms: _202  and  _205
REMARK   83  A    between atoms: _205  and  _206
REMARK   84  A    between atoms: _216  and  _218
REMARK   85  A    between atoms: _218  and  _219
REMARK   86  A    between atoms: _222  and  _224
REMARK   87  A    between atoms: _224  and  _225
REMARK   88  A    between atoms: _228  and  _230
REMARK   89  A    between atoms: _230  and  _231
REMARK   90  A    between atoms: _230  and  _233
REMARK   91  A    between atoms: _233  and  _234
REMARK   92  A    between atoms: _237  and  _239
REMARK   93  A    between atoms: _239  and  _240
REMARK   94  A    between atoms: _243  and  _245
REMARK   95  A    between atoms: _245  and  _246
REMARK   96  A    between atoms: _245  and  _248
REMARK   97  A    between atoms: _248  and  _249
REMARK   98  A    between atoms: _249  and  _250
REMARK   99  A    between atoms: _255  and  _257
REMARK  100  A    between atoms: _257  and  _258
REMARK  101  A    between atoms: _257  and  _260
REMARK  102  A    between atoms: _260  and  _261
REMARK  103  A    between atoms: _264  and  _266
REMARK  104  A    between atoms: _266  and  _267
REMARK  105  A    between atoms: _266  and  _269
REMARK  106  A    between atoms: _269  and  _270
REMARK  107  A    between atoms: _273  and  _275
REMARK  108  A    between atoms: _275  and  _276
REMARK  109  A    between atoms: _275  and  _278
REMARK  110  A    between atoms: _278  and  _279
REMARK  111  A    between atoms: _282  and  _284
REMARK  112  A    between atoms: _284  and  _285
REMARK  113  A    between atoms: _284  and  _287
REMARK  114  A    between atoms: _287  and  _288
REMARK  115  A    between atoms: _290  and  _292
REMARK  116  A    between atoms: _292  and  _293
REMARK  117  A    between atoms: _292  and  _295
REMARK  118  A    between atoms: _298  and  _300
REMARK  119  A    between atoms: _300  and  _301
REMARK  120  A    between atoms: _300  and  _303
REMARK  121  A    between atoms: _303  and  _304
REMARK  122  A    between atoms: _304  and  _305
REMARK  123  A    between atoms: _305  and  _306
REMARK  124  A    between atoms: _306  and  _307
REMARK  125  A    between atoms: _311  and  _313
REMARK  126  A    between atoms: _313  and  _314
REMARK  127  A    between atoms: _313  and  _316
REMARK  128  A    between atoms: _316  and  _317
REMARK  129  A    between atoms: _328  and  _329
REMARK  130  A    between atoms: _334  and  _336
REMARK  131  A    between atoms: _336  and  _337
REMARK  132  A    between atoms: _336  and  _339
REMARK  133  A    between atoms: _339  and  _340
REMARK  134  A    between atoms: _345  and  _347
REMARK  135  A    between atoms: _347  and  _348
REMARK  136  A    between atoms: _347  and  _350
REMARK  137  A    between atoms: _350  and  _351
REMARK  138  A    between atoms: _354  and  _356
REMARK  139  A    between atoms: _356  and  _357
REMARK  140  A    between atoms: _356  and  _359
REMARK  141  A    between atoms: _362  and  _364
REMARK  142  A    between atoms: _364  and  _365
REMARK  143  A    between atoms: _367  and  _369
REMARK  144  A    between atoms: _369  and  _370
REMARK  145  A    between atoms: _369  and  _372
REMARK  146  A    between atoms: _372  and  _373
REMARK  147  A    between atoms: _373  and  _374
REMARK  148  A    between atoms: _374  and  _375
REMARK  149  A    between atoms: _375  and  _376
REMARK  150  A    between atoms: _380  and  _382
REMARK  151  A    between atoms: _382  and  _383
REMARK  152  A    between atoms: _382  and  _385
REMARK  153  A    between atoms: _385  and  _386
REMARK  154  A    between atoms: _389  and  _391
REMARK  155  A    between atoms: _391  and  _392
REMARK  156  A    between atoms: _395  and  _397
REMARK  157  A    between atoms: _397  and  _398
REMARK  158  A    between atoms: _400  and  _402
REMARK  159  A    between atoms: _402  and  _403
REMARK  160  A    between atoms: _402  and  _405
REMARK  161  A    between atoms: _405  and  _406
REMARK  162  A    between atoms: _409  and  _411
REMARK  163  A    between atoms: _411  and  _412
REMARK  164  A    between atoms: _411  and  _414
REMARK  165  A    between atoms: _414  and  _415
REMARK  166  A    between atoms: _418  and  _420
REMARK  167  A    between atoms: _420  and  _421
REMARK  168  A    between atoms: _424  and  _426
REMARK  169  A    between atoms: _426  and  _427
REMARK  170  A    between atoms: _426  and  _429
REMARK  171  A    between atoms: _429  and  _430
REMARK  172  A    between atoms: _430  and  _431
REMARK  173  A    between atoms: _434  and  _436
REMARK  174  A    between atoms: _436  and  _437
REMARK  175  A    between atoms: _436  and  _439
REMARK  176  A    between atoms: _442  and  _444
REMARK  177  A    between atoms: _444  and  _445
REMARK  178  A    between atoms: _444  and  _447
REMARK  179  A    between atoms: _447  and  _448
REMARK  180  A    between atoms: _451  and  _453
REMARK  181  A    between atoms: _453  and  _454
REMARK  182  A    between atoms: _456  and  _458
REMARK  183  A    between atoms: _458  and  _459
REMARK  184  A    between atoms: _458  and  _461
REMARK  185  A    between atoms: _464  and  _466
REMARK  186  A    between atoms: _466  and  _467
REMARK  187  A    between atoms: _469  and  _471
REMARK  188  A    between atoms: _471  and  _472
REMARK  189  A    between atoms: _471  and  _474
REMARK  190  A    between atoms: _474  and  _475
REMARK  191  A    between atoms: _478  and  _480
REMARK  192  A    between atoms: _480  and  _481
REMARK  193  A    between atoms: _480  and  _483
REMARK  194  A    between atoms: _483  and  _484
REMARK  195  A    between atoms: _489  and  _491
REMARK  196  A    between atoms: _491  and  _492
REMARK  197  A    between atoms: _491  and  _494
REMARK  198  A    between atoms: _497  and  _499
REMARK  199  A    between atoms: _499  and  _500
REMARK  200  A    between atoms: _499  and  _502
REMARK  201  A    between atoms: _502  and  _503
REMARK  202  A    between atoms: _503  and  _504
REMARK  203  A    between atoms: _509  and  _511
REMARK  204  A    between atoms: _511  and  _512
REMARK  205  A    between atoms: _516  and  _517
REMARK  206  A    between atoms: _522  and  _524
REMARK  207  A    between atoms: _524  and  _525
REMARK  208  A    between atoms: _524  and  _527
REMARK  209  A    between atoms: _527  and  _528
REMARK  210  A    between atoms: _528  and  _529
REMARK  211  A    between atoms: _532  and  _534
REMARK  212  A    between atoms: _534  and  _535
REMARK  213  A    between atoms: _534  and  _537
REMARK  214  A    between atoms: _540  and  _542
REMARK  215  A    between atoms: _542  and  _543
REMARK  216  A    between atoms: _542  and  _545
REMARK  217  A    between atoms: _545  and  _546
REMARK  218  A    between atoms: _550  and  _551
REMARK  219  A    between atoms: _556  and  _558
REMARK  220  A    between atoms: _558  and  _559
REMARK  221  A    between atoms: _558  and  _561
REMARK  222  A    between atoms: _561  and  _562
REMARK  223  A    between atoms: _565  and  _567
REMARK  224  A    between atoms: _567  and  _568
REMARK  225  A    between atoms: _571  and  _573
REMARK  226  A    between atoms: _573  and  _574
REMARK  227  A    between atoms: _573  and  _576
REMARK  228  A    between atoms: _576  and  _577
REMARK  229  A    between atoms: _580  and  _582
REMARK  230  A    between atoms: _582  and  _583
REMARK  231  A    between atoms: _582  and  _585
REMARK  232  A    between atoms: _585  and  _586
REMARK  233  A    between atoms: _588  and  _590
REMARK  234  A    between atoms: _590  and  _591
REMARK  235  A    between atoms: _593  and  _595
REMARK  236  A    between atoms: _595  and  _596
REMARK  237  A    between atoms: _595  and  _598
REMARK  238  A    between atoms: _598  and  _599
REMARK  239  A    between atoms: _602  and  _604
REMARK  240  A    between atoms: _604  and  _605
REMARK  241  A    between atoms: _604  and  _607
REMARK                            x       y       z     vdW  Elec       q    Type
REMARK                         _______ _______ _______ _____ _____    ______ ____
ROOT
ATOM      1  O   HOH     1      -2.241   2.085  12.533  0.00  0.00    +0.000 OA
ENDROOT
TORSDOF 0
REMARK  Name = ../refined-set-2016/4xu1/4xu1_pocket.pdb
REMARK  241 active torsions:
REMARK  status: ('A' for Active; 'I' for Inactive)
REMARK    1  A    between atoms: _1  and  _3
REMARK    2  A    between atoms: _3  and  _4
REMARK    3  A    between atoms: _3  and  _6
REMARK    4  A    between atoms: _6  and  _7
REMARK    5  A    between atoms: _10  and  _12
REMARK    6  A    between atoms: _12  and  _13
REMARK    7  A    between atoms: _15  and  _17
REMARK    8  A    between atoms: _17  and  _18
REMARK    9  A    between atoms: _17  and  _20
REMARK   10  A    between atoms: _20  and  _21
REMARK   11  A    between atoms: _23  and  _25
REMARK   12  A    between atoms: _25  and  _26
REMARK   13  A    between atoms: _25  and  _28
REMARK   14  A    between atoms: _28  and  _29
REMARK   15  A    between atoms: _32  and  _34
REMARK   16  A    between atoms: _34  and  _35
REMARK   17  A    between atoms: _34  and  _37
REMARK   18  A    between atoms: _37  and  _38
REMARK   19  A    between atoms: _43  and  _45
REMARK   20  A    between atoms: _45  and  _46
REMARK   21  A    between atoms: _49  and  _51
REMARK   22  A    between atoms: _51  and  _52
REMARK   23  A    between atoms: _51  and  _54
REMARK   24  A    between atoms: _54  and  _55
REMARK   25  A    between atoms: _58  and  _60
REMARK   26  A    between atoms: _60  and  _61
REMARK   27  A    between atoms: _60  and  _63
REMARK   28  A    between atoms: _63  and  _64
REMARK   29  A    between atoms: _67  and  _69
REMARK   30  A    between atoms: _69  and  _70
REMARK   31  A    between atoms: _69  and  _72
REMARK   32  A    between atoms: _72  and  _73
REMARK   33  A    between atoms: _76  and  _78
REMARK   34  A    between atoms: _78  and  _79
REMARK   35  A    between atoms: _78  and  _81
REMARK   36  A    between atoms: _81  and  _82
REMARK   37  A    between atoms: _85  and  _87
REMARK   38  A    between atoms: _87  and  _88
REMARK   39  A    between atoms: _91  and  _93
REMARK   40  A    between atoms: _93  and  _94
REMARK   41  A    between atoms: _93  and  _96
REMARK   42  A    between atoms: _96  and  _97
REMARK   43  A    between atoms: _97  and  _98
REMARK   44  A    between atoms: _103  and  _105
REMARK   45  A    between atoms: _105  and  _106
REMARK   46  A    between atoms: _105  and  _108
REMARK   47  A    between atoms: _108  and  _109
REMARK   48  A    between atoms: _112  and  _114
REMARK   49  A    between atoms: _114  and  _115
REMARK   50  A    between atoms: _118  and  _120
REMARK   51  A    between atoms: _120  and  _121
REMARK   52  A    between atoms: _123  and  _125
REMARK   53  A    between atoms: _125  and  _126
REMARK   54  A    between atoms: _125  and  _128
REMARK   55  A    between atoms: _128  and  _129
REMARK   56  A    between atoms: _129  and  _130
REMARK   57  A    between atoms: _130  and  _131
REMARK   58  A    between atoms: _140  and  _142
REMARK   59  A    between atoms: _142  and  _143
REMARK   60  A    between atoms: _145  and  _147
REMARK   61  A    between atoms: _147  and  _148
REMARK   62  A    between atoms: _147  and  _150
REMARK   63  A    between atoms: _150  and  _151
REMARK   64  A    between atoms: _151  and  _152
REMARK   65  A    between atoms: _152  and  _153
REMARK   66  A    between atoms: _162  and  _164
REMARK   67  A    between atoms: _164  and  _165
REMARK   68  A    between atoms: _164  and  _167
REMARK   69  A    between atoms: _167  and  _168
REMARK   70  A    between atoms: _173  and  _175
REMARK   71  A    between atoms: _175  and  _176
REMARK   72  A    between atoms: _178  and  _180
REMARK   73  A    between atoms: _180  and  _181
REMARK   74  A    between atoms: _180  and  _183
REMARK   75  A    between atoms: _183  and  _184
REMARK   76  A    between atoms: _184  and  _185
REMARK   77  A    between atoms: _185  and  _186
REMARK   78  A    between atoms: _195  and  _197
REMARK   79  A    between atoms: _197  and  _198
REMARK   80  A    between atoms: _200  and  _202
REMARK   81  A    between atoms: _202  and  _203
REMARK   82  A    between atoms: _202  and  _205
REMARK   83  A    between atoms: _205  and  _206
REMARK   84  A    between atoms: _216  and  _218
REMARK   85  A    between atoms: _218  and  _219
REMARK   86  A    between atoms: _222  and  _224
REMARK   87  A    between atoms: _224  and  _225
REMARK   88  A    between atoms: _228  and  _230
REMARK   89  A    between atoms: _230  and  _231
REMARK   90  A    between atoms: _230  and  _233
REMARK   91  A    between atoms: _233  and  _234
REMARK   92  A    between atoms: _237  and  _239
REMARK   93  A    between atoms: _239  and  _240
REMARK   94  A    between atoms: _243  and  _245
REMARK   95  A    between atoms: _245  and  _246
REMARK   96  A    between atoms: _245  and  _248
REMARK   97  A    between atoms: _248  and  _249
REMARK   98  A    between atoms: _249  and  _250
REMARK   99  A    between atoms: _255  and  _257
REMARK  100  A    between atoms: _257  and  _258
REMARK  101  A    between atoms: _257  and  _260
REMARK  102  A    between atoms: _260  and  _261
REMARK  103  A    between atoms: _264  and  _266
REMARK  104  A    between atoms: _266  and  _267
REMARK  105  A    between atoms: _266  and  _269
REMARK  106  A    between atoms: _269  and  _270
REMARK  107  A    between atoms: _273  and  _275
REMARK  108  A    between atoms: _275  and  _276
REMARK  109  A    between atoms: _275  and  _278
REMARK  110  A    between atoms: _278  and  _279
REMARK  111  A    between atoms: _282  and  _284
REMARK  112  A    between atoms: _284  and  _285
REMARK  113  A    between atoms: _284  and  _287
REMARK  114  A    between atoms: _287  and  _288
REMARK  115  A    between atoms: _290  and  _292
REMARK  116  A    between atoms: _292  and  _293
REMARK  117  A    between atoms: _292  and  _295
REMARK  118  A    between atoms: _298  and  _300
REMARK  119  A    between atoms: _300  and  _301
REMARK  120  A    between atoms: _300  and  _303
REMARK  121  A    between atoms: _303  and  _304
REMARK  122  A    between atoms: _304  and  _305
REMARK  123  A    between atoms: _305  and  _306
REMARK  124  A    between atoms: _306  and  _307
REMARK  125  A    between atoms: _311  and  _313
REMARK  126  A    between atoms: _313  and  _314
REMARK  127  A    between atoms: _313  and  _316
REMARK  128  A    between atoms: _316  and  _317
REMARK  129  A    between atoms: _328  and  _329
REMARK  130  A    between atoms: _334  and  _336
REMARK  131  A    between atoms: _336  and  _337
REMARK  132  A    between atoms: _336  and  _339
REMARK  133  A    between atoms: _339  and  _340
REMARK  134  A    between atoms: _345  and  _347
REMARK  135  A    between atoms: _347  and  _348
REMARK  136  A    between atoms: _347  and  _350
REMARK  137  A    between atoms: _350  and  _351
REMARK  138  A    between atoms: _354  and  _356
REMARK  139  A    between atoms: _356  and  _357
REMARK  140  A    between atoms: _356  and  _359
REMARK  141  A    between atoms: _362  and  _364
REMARK  142  A    between atoms: _364  and  _365
REMARK  143  A    between atoms: _367  and  _369
REMARK  144  A    between atoms: _369  and  _370
REMARK  145  A    between atoms: _369  and  _372
REMARK  146  A    between atoms: _372  and  _373
REMARK  147  A    between atoms: _373  and  _374
REMARK  148  A    between atoms: _374  and  _375
REMARK  149  A    between atoms: _375  and  _376
REMARK  150  A    between atoms: _380  and  _382
REMARK  151  A    between atoms: _382  and  _383
REMARK  152  A    between atoms: _382  and  _385
REMARK  153  A    between atoms: _385  and  _386
REMARK  154  A    between atoms: _389  and  _391
REMARK  155  A    between atoms: _391  and  _392
REMARK  156  A    between atoms: _395  and  _397
REMARK  157  A    between atoms: _397  and  _398
REMARK  158  A    between atoms: _400  and  _402
REMARK  159  A    between atoms: _402  and  _403
REMARK  160  A    between atoms: _402  and  _405
REMARK  161  A    between atoms: _405  and  _406
REMARK  162  A    between atoms: _409  and  _411
REMARK  163  A    between atoms: _411  and  _412
REMARK  164  A    between atoms: _411  and  _414
REMARK  165  A    between atoms: _414  and  _415
REMARK  166  A    between atoms: _418  and  _420
REMARK  167  A    between atoms: _420  and  _421
REMARK  168  A    between atoms: _424  and  _426
REMARK  169  A    between atoms: _426  and  _427
REMARK  170  A    between atoms: _426  and  _429
REMARK  171  A    between atoms: _429  and  _430
REMARK  172  A    between atoms: _430  and  _431
REMARK  173  A    between atoms: _434  and  _436
REMARK  174  A    between atoms: _436  and  _437
REMARK  175  A    between atoms: _436  and  _439
REMARK  176  A    between atoms: _442  and  _444
REMARK  177  A    between atoms: _444  and  _445
REMARK  178  A    between atoms: _444  and  _447
REMARK  179  A    between atoms: _447  and  _448
REMARK  180  A    between atoms: _451  and  _453
REMARK  181  A    between atoms: _453  and  _454
REMARK  182  A    between atoms: _456  and  _458
REMARK  183  A    between atoms: _458  and  _459
REMARK  184  A    between atoms: _458  and  _461
REMARK  185  A    between atoms: _464  and  _466
REMARK  186  A    between atoms: _466  and  _467
REMARK  187  A    between atoms: _469  and  _471
REMARK  188  A    between atoms: _471  and  _472
REMARK  189  A    between atoms: _471  and  _474
REMARK  190  A    between atoms: _474  and  _475
REMARK  191  A    between atoms: _478  and  _480
REMARK  192  A    between atoms: _480  and  _481
REMARK  193  A    between atoms: _480  and  _483
REMARK  194  A    between atoms: _483  and  _484
REMARK  195  A    between atoms: _489  and  _491
REMARK  196  A    between atoms: _491  and  _492
REMARK  197  A    between atoms: _491  and  _494
REMARK  198  A    between atoms: _497  and  _499
REMARK  199  A    between atoms: _499  and  _500
REMARK  200  A    between atoms: _499  and  _502
REMARK  201  A    between atoms: _502  and  _503
REMARK  202  A    between atoms: _503  and  _504
REMARK  203  A    between atoms: _509  and  _511
REMARK  204  A    between atoms: _511  and  _512
REMARK  205  A    between atoms: _516  and  _517
REMARK  206  A    between atoms: _522  and  _524
REMARK  207  A    between atoms: _524  and  _525
REMARK  208  A    between atoms: _524  and  _527
REMARK  209  A    between atoms: _527  and  _528
REMARK  210  A    between atoms: _528  and  _529
REMARK  211  A    between atoms: _532  and  _534
REMARK  212  A    between atoms: _534  and  _535
REMARK  213  A    between atoms: _534  and  _537
REMARK  214  A    between atoms: _540  and  _542
REMARK  215  A    between atoms: _542  and  _543
REMARK  216  A    between atoms: _542  and  _545
REMARK  217  A    between atoms: _545  and  _546
REMARK  218  A    between atoms: _550  and  _551
REMARK  219  A    between atoms: _556  and  _558
REMARK  220  A    between atoms: _558  and  _559
REMARK  221  A    between atoms: _558  and  _561
REMARK  222  A    between atoms: _561  and  _562
REMARK  223  A    between atoms: _565  and  _567
REMARK  224  A    between atoms: _567  and  _568
REMARK  225  A    between atoms: _571  and  _573
REMARK  226  A    between atoms: _573  and  _574
REMARK  227  A    between atoms: _573  and  _576
REMARK  228  A    between atoms: _576  and  _577
REMARK  229  A    between atoms: _580  and  _582
REMARK  230  A    between atoms: _582  and  _583
REMARK  231  A    between atoms: _582  and  _585
REMARK  232  A    between atoms: _585  and  _586
REMARK  233  A    between atoms: _588  and  _590
REMARK  234  A    between atoms: _590  and  _591
REMARK  235  A    between atoms: _593  and  _595
REMARK  236  A    between atoms: _595  and  _596
REMARK  237  A    between atoms: _595  and  _598
REMARK  238  A    between atoms: _598  and  _599
REMARK  239  A    between atoms: _602  and  _604
REMARK  240  A    between atoms: _604  and  _605
REMARK  241  A    between atoms: _604  and  _607
REMARK                            x       y       z     vdW  Elec       q    Type
REMARK                         _______ _______ _______ _____ _____    ______ ____
ROOT
ATOM      1  O   HOH     1       1.709  -2.633  16.712  0.00  0.00    +0.000 OA
ENDROOT
TORSDOF 0
REMARK  Name = ../refined-set-2016/4xu1/4xu1_pocket.pdb
REMARK  241 active torsions:
REMARK  status: ('A' for Active; 'I' for Inactive)
REMARK    1  A    between atoms: _1  and  _3
REMARK    2  A    between atoms: _3  and  _4
REMARK    3  A    between atoms: _3  and  _6
REMARK    4  A    between atoms: _6  and  _7
REMARK    5  A    between atoms: _10  and  _12
REMARK    6  A    between atoms: _12  and  _13
REMARK    7  A    between atoms: _15  and  _17
REMARK    8  A    between atoms: _17  and  _18
REMARK    9  A    between atoms: _17  and  _20
REMARK   10  A    between atoms: _20  and  _21
REMARK   11  A    between atoms: _23  and  _25
REMARK   12  A    between atoms: _25  and  _26
REMARK   13  A    between atoms: _25  and  _28
REMARK   14  A    between atoms: _28  and  _29
REMARK   15  A    between atoms: _32  and  _34
REMARK   16  A    between atoms: _34  and  _35
REMARK   17  A    between atoms: _34  and  _37
REMARK   18  A    between atoms: _37  and  _38
REMARK   19  A    between atoms: _43  and  _45
REMARK   20  A    between atoms: _45  and  _46
REMARK   21  A    between atoms: _49  and  _51
REMARK   22  A    between atoms: _51  and  _52
REMARK   23  A    between atoms: _51  and  _54
REMARK   24  A    between atoms: _54  and  _55
REMARK   25  A    between atoms: _58  and  _60
REMARK   26  A    between atoms: _60  and  _61
REMARK   27  A    between atoms: _60  and  _63
REMARK   28  A    between atoms: _63  and  _64
REMARK   29  A    between atoms: _67  and  _69
REMARK   30  A    between atoms: _69  and  _70
REMARK   31  A    between atoms: _69  and  _72
REMARK   32  A    between atoms: _72  and  _73
REMARK   33  A    between atoms: _76  and  _78
REMARK   34  A    between atoms: _78  and  _79
REMARK   35  A    between atoms: _78  and  _81
REMARK   36  A    between atoms: _81  and  _82
REMARK   37  A    between atoms: _85  and  _87
REMARK   38  A    between atoms: _87  and  _88
REMARK   39  A    between atoms: _91  and  _93
REMARK   40  A    between atoms: _93  and  _94
REMARK   41  A    between atoms: _93  and  _96
REMARK   42  A    between atoms: _96  and  _97
REMARK   43  A    between atoms: _97  and  _98
REMARK   44  A    between atoms: _103  and  _105
REMARK   45  A    between atoms: _105  and  _106
REMARK   46  A    between atoms: _105  and  _108
REMARK   47  A    between atoms: _108  and  _109
REMARK   48  A    between atoms: _112  and  _114
REMARK   49  A    between atoms: _114  and  _115
REMARK   50  A    between atoms: _118  and  _120
REMARK   51  A    between atoms: _120  and  _121
REMARK   52  A    between atoms: _123  and  _125
REMARK   53  A    between atoms: _125  and  _126
REMARK   54  A    between atoms: _125  and  _128
REMARK   55  A    between atoms: _128  and  _129
REMARK   56  A    between atoms: _129  and  _130
REMARK   57  A    between atoms: _130  and  _131
REMARK   58  A    between atoms: _140  and  _142
REMARK   59  A    between atoms: _142  and  _143
REMARK   60  A    between atoms: _145  and  _147
REMARK   61  A    between atoms: _147  and  _148
REMARK   62  A    between atoms: _147  and  _150
REMARK   63  A    between atoms: _150  and  _151
REMARK   64  A    between atoms: _151  and  _152
REMARK   65  A    between atoms: _152  and  _153
REMARK   66  A    between atoms: _162  and  _164
REMARK   67  A    between atoms: _164  and  _165
REMARK   68  A    between atoms: _164  and  _167
REMARK   69  A    between atoms: _167  and  _168
REMARK   70  A    between atoms: _173  and  _175
REMARK   71  A    between atoms: _175  and  _176
REMARK   72  A    between atoms: _178  and  _180
REMARK   73  A    between atoms: _180  and  _181
REMARK   74  A    between atoms: _180  and  _183
REMARK   75  A    between atoms: _183  and  _184
REMARK   76  A    between atoms: _184  and  _185
REMARK   77  A    between atoms: _185  and  _186
REMARK   78  A    between atoms: _195  and  _197
REMARK   79  A    between atoms: _197  and  _198
REMARK   80  A    between atoms: _200  and  _202
REMARK   81  A    between atoms: _202  and  _203
REMARK   82  A    between atoms: _202  and  _205
REMARK   83  A    between atoms: _205  and  _206
REMARK   84  A    between atoms: _216  and  _218
REMARK   85  A    between atoms: _218  and  _219
REMARK   86  A    between atoms: _222  and  _224
REMARK   87  A    between atoms: _224  and  _225
REMARK   88  A    between atoms: _228  and  _230
REMARK   89  A    between atoms: _230  and  _231
REMARK   90  A    between atoms: _230  and  _233
REMARK   91  A    between atoms: _233  and  _234
REMARK   92  A    between atoms: _237  and  _239
REMARK   93  A    between atoms: _239  and  _240
REMARK   94  A    between atoms: _243  and  _245
REMARK   95  A    between atoms: _245  and  _246
REMARK   96  A    between atoms: _245  and  _248
REMARK   97  A    between atoms: _248  and  _249
REMARK   98  A    between atoms: _249  and  _250
REMARK   99  A    between atoms: _255  and  _257
REMARK  100  A    between atoms: _257  and  _258
REMARK  101  A    between atoms: _257  and  _260
REMARK  102  A    between atoms: _260  and  _261
REMARK  103  A    between atoms: _264  and  _266
REMARK  104  A    between atoms: _266  and  _267
REMARK  105  A    between atoms: _266  and  _269
REMARK  106  A    between atoms: _269  and  _270
REMARK  107  A    between atoms: _273  and  _275
REMARK  108  A    between atoms: _275  and  _276
REMARK  109  A    between atoms: _275  and  _278
REMARK  110  A    between atoms: _278  and  _279
REMARK  111  A    between atoms: _282  and  _284
REMARK  112  A    between atoms: _284  and  _285
REMARK  113  A    between atoms: _284  and  _287
REMARK  114  A    between atoms: _287  and  _288
REMARK  115  A    between atoms: _290  and  _292
REMARK  116  A    between atoms: _292  and  _293
REMARK  117  A    between atoms: _292  and  _295
REMARK  118  A    between atoms: _298  and  _300
REMARK  119  A    between atoms: _300  and  _301
REMARK  120  A    between atoms: _300  and  _303
REMARK  121  A    between atoms: _303  and  _304
REMARK  122  A    between atoms: _304  and  _305
REMARK  123  A    between atoms: _305  and  _306
REMARK  124  A    between atoms: _306  and  _307
REMARK  125  A    between atoms: _311  and  _313
REMARK  126  A    between atoms: _313  and  _314
REMARK  127  A    between atoms: _313  and  _316
REMARK  128  A    between atoms: _316  and  _317
REMARK  129  A    between atoms: _328  and  _329
REMARK  130  A    between atoms: _334  and  _336
REMARK  131  A    between atoms: _336  and  _337
REMARK  132  A    between atoms: _336  and  _339
REMARK  133  A    between atoms: _339  and  _340
REMARK  134  A    between atoms: _345  and  _347
REMARK  135  A    between atoms: _347  and  _348
REMARK  136  A    between atoms: _347  and  _350
REMARK  137  A    between atoms: _350  and  _351
REMARK  138  A    between atoms: _354  and  _356
REMARK  139  A    between atoms: _356  and  _357
REMARK  140  A    between atoms: _356  and  _359
REMARK  141  A    between atoms: _362  and  _364
REMARK  142  A    between atoms: _364  and  _365
REMARK  143  A    between atoms: _367  and  _369
REMARK  144  A    between atoms: _369  and  _370
REMARK  145  A    between atoms: _369  and  _372
REMARK  146  A    between atoms: _372  and  _373
REMARK  147  A    between atoms: _373  and  _374
REMARK  148  A    between atoms: _374  and  _375
REMARK  149  A    between atoms: _375  and  _376
REMARK  150  A    between atoms: _380  and  _382
REMARK  151  A    between atoms: _382  and  _383
REMARK  152  A    between atoms: _382  and  _385
REMARK  153  A    between atoms: _385  and  _386
REMARK  154  A    between atoms: _389  and  _391
REMARK  155  A    between atoms: _391  and  _392
REMARK  156  A    between atoms: _395  and  _397
REMARK  157  A    between atoms: _397  and  _398
REMARK  158  A    between atoms: _400  and  _402
REMARK  159  A    between atoms: _402  and  _403
REMARK  160  A    between atoms: _402  and  _405
REMARK  161  A    between atoms: _405  and  _406
REMARK  162  A    between atoms: _409  and  _411
REMARK  163  A    between atoms: _411  and  _412
REMARK  164  A    between atoms: _411  and  _414
REMARK  165  A    between atoms: _414  and  _415
REMARK  166  A    between atoms: _418  and  _420
REMARK  167  A    between atoms: _420  and  _421
REMARK  168  A    between atoms: _424  and  _426
REMARK  169  A    between atoms: _426  and  _427
REMARK  170  A    between atoms: _426  and  _429
REMARK  171  A    between atoms: _429  and  _430
REMARK  172  A    between atoms: _430  and  _431
REMARK  173  A    between atoms: _434  and  _436
REMARK  174  A    between atoms: _436  and  _437
REMARK  175  A    between atoms: _436  and  _439
REMARK  176  A    between atoms: _442  and  _444
REMARK  177  A    between atoms: _444  and  _445
REMARK  178  A    between atoms: _444  and  _447
REMARK  179  A    between atoms: _447  and  _448
REMARK  180  A    between atoms: _451  and  _453
REMARK  181  A    between atoms: _453  and  _454
REMARK  182  A    between atoms: _456  and  _458
REMARK  183  A    between atoms: _458  and  _459
REMARK  184  A    between atoms: _458  and  _461
REMARK  185  A    between atoms: _464  and  _466
REMARK  186  A    between atoms: _466  and  _467
REMARK  187  A    between atoms: _469  and  _471
REMARK  188  A    between atoms: _471  and  _472
REMARK  189  A    between atoms: _471  and  _474
REMARK  190  A    between atoms: _474  and  _475
REMARK  191  A    between atoms: _478  and  _480
REMARK  192  A    between atoms: _480  and  _481
REMARK  193  A    between atoms: _480  and  _483
REMARK  194  A    between atoms: _483  and  _484
REMARK  195  A    between atoms: _489  and  _491
REMARK  196  A    between atoms: _491  and  _492
REMARK  197  A    between atoms: _491  and  _494
REMARK  198  A    between atoms: _497  and  _499
REMARK  199  A    between atoms: _499  and  _500
REMARK  200  A    between atoms: _499  and  _502
REMARK  201  A    between atoms: _502  and  _503
REMARK  202  A    between atoms: _503  and  _504
REMARK  203  A    between atoms: _509  and  _511
REMARK  204  A    between atoms: _511  and  _512
REMARK  205  A    between atoms: _516  and  _517
REMARK  206  A    between atoms: _522  and  _524
REMARK  207  A    between atoms: _524  and  _525
REMARK  208  A    between atoms: _524  and  _527
REMARK  209  A    between atoms: _527  and  _528
REMARK  210  A    between atoms: _528  and  _529
REMARK  211  A    between atoms: _532  and  _534
REMARK  212  A    between atoms: _534  and  _535
REMARK  213  A    between atoms: _534  and  _537
REMARK  214  A    between atoms: _540  and  _542
REMARK  215  A    between atoms: _542  and  _543
REMARK  216  A    between atoms: _542  and  _545
REMARK  217  A    between atoms: _545  and  _546
REMARK  218  A    between atoms: _550  and  _551
REMARK  219  A    between atoms: _556  and  _558
REMARK  220  A    between atoms: _558  and  _559
REMARK  221  A    between atoms: _558  and  _561
REMARK  222  A    between atoms: _561  and  _562
REMARK  223  A    between atoms: _565  and  _567
REMARK  224  A    between atoms: _567  and  _568
REMARK  225  A    between atoms: _571  and  _573
REMARK  226  A    between atoms: _573  and  _574
REMARK  227  A    between atoms: _573  and  _576
REMARK  228  A    between atoms: _576  and  _577
REMARK  229  A    between atoms: _580  and  _582
REMARK  230  A    between atoms: _582  and  _583
REMARK  231  A    between atoms: _582  and  _585
REMARK  232  A    between atoms: _585  and  _586
REMARK  233  A    between atoms: _588  and  _590
REMARK  234  A    between atoms: _590  and  _591
REMARK  235  A    between atoms: _593  and  _595
REMARK  236  A    between atoms: _595  and  _596
REMARK  237  A    between atoms: _595  and  _598
REMARK  238  A    between atoms: _598  and  _599
REMARK  239  A    between atoms: _602  and  _604
REMARK  240  A    between atoms: _604  and  _605
REMARK  241  A    between atoms: _604  and  _607
REMARK                            x       y       z     vdW  Elec       q    Type
REMARK                         _______ _______ _______ _____ _____    ______ ____
ROOT
ATOM      1  O   HOH     1     -11.790   1.027  16.755  0.00  0.00    +0.000 OA
ENDROOT
TORSDOF 0
REMARK  Name = ../refined-set-2016/4xu1/4xu1_pocket.pdb
REMARK  241 active torsions:
REMARK  status: ('A' for Active; 'I' for Inactive)
REMARK    1  A    between atoms: _1  and  _3
REMARK    2  A    between atoms: _3  and  _4
REMARK    3  A    between atoms: _3  and  _6
REMARK    4  A    between atoms: _6  and  _7
REMARK    5  A    between atoms: _10  and  _12
REMARK    6  A    between atoms: _12  and  _13
REMARK    7  A    between atoms: _15  and  _17
REMARK    8  A    between atoms: _17  and  _18
REMARK    9  A    between atoms: _17  and  _20
REMARK   10  A    between atoms: _20  and  _21
REMARK   11  A    between atoms: _23  and  _25
REMARK   12  A    between atoms: _25  and  _26
REMARK   13  A    between atoms: _25  and  _28
REMARK   14  A    between atoms: _28  and  _29
REMARK   15  A    between atoms: _32  and  _34
REMARK   16  A    between atoms: _34  and  _35
REMARK   17  A    between atoms: _34  and  _37
REMARK   18  A    between atoms: _37  and  _38
REMARK   19  A    between atoms: _43  and  _45
REMARK   20  A    between atoms: _45  and  _46
REMARK   21  A    between atoms: _49  and  _51
REMARK   22  A    between atoms: _51  and  _52
REMARK   23  A    between atoms: _51  and  _54
REMARK   24  A    between atoms: _54  and  _55
REMARK   25  A    between atoms: _58  and  _60
REMARK   26  A    between atoms: _60  and  _61
REMARK   27  A    between atoms: _60  and  _63
REMARK   28  A    between atoms: _63  and  _64
REMARK   29  A    between atoms: _67  and  _69
REMARK   30  A    between atoms: _69  and  _70
REMARK   31  A    between atoms: _69  and  _72
REMARK   32  A    between atoms: _72  and  _73
REMARK   33  A    between atoms: _76  and  _78
REMARK   34  A    between atoms: _78  and  _79
REMARK   35  A    between atoms: _78  and  _81
REMARK   36  A    between atoms: _81  and  _82
REMARK   37  A    between atoms: _85  and  _87
REMARK   38  A    between atoms: _87  and  _88
REMARK   39  A    between atoms: _91  and  _93
REMARK   40  A    between atoms: _93  and  _94
REMARK   41  A    between atoms: _93  and  _96
REMARK   42  A    between atoms: _96  and  _97
REMARK   43  A    between atoms: _97  and  _98
REMARK   44  A    between atoms: _103  and  _105
REMARK   45  A    between atoms: _105  and  _106
REMARK   46  A    between atoms: _105  and  _108
REMARK   47  A    between atoms: _108  and  _109
REMARK   48  A    between atoms: _112  and  _114
REMARK   49  A    between atoms: _114  and  _115
REMARK   50  A    between atoms: _118  and  _120
REMARK   51  A    between atoms: _120  and  _121
REMARK   52  A    between atoms: _123  and  _125
REMARK   53  A    between atoms: _125  and  _126
REMARK   54  A    between atoms: _125  and  _128
REMARK   55  A    between atoms: _128  and  _129
REMARK   56  A    between atoms: _129  and  _130
REMARK   57  A    between atoms: _130  and  _131
REMARK   58  A    between atoms: _140  and  _142
REMARK   59  A    between atoms: _142  and  _143
REMARK   60  A    between atoms: _145  and  _147
REMARK   61  A    between atoms: _147  and  _148
REMARK   62  A    between atoms: _147  and  _150
REMARK   63  A    between atoms: _150  and  _151
REMARK   64  A    between atoms: _151  and  _152
REMARK   65  A    between atoms: _152  and  _153
REMARK   66  A    between atoms: _162  and  _164
REMARK   67  A    between atoms: _164  and  _165
REMARK   68  A    between atoms: _164  and  _167
REMARK   69  A    between atoms: _167  and  _168
REMARK   70  A    between atoms: _173  and  _175
REMARK   71  A    between atoms: _175  and  _176
REMARK   72  A    between atoms: _178  and  _180
REMARK   73  A    between atoms: _180  and  _181
REMARK   74  A    between atoms: _180  and  _183
REMARK   75  A    between atoms: _183  and  _184
REMARK   76  A    between atoms: _184  and  _185
REMARK   77  A    between atoms: _185  and  _186
REMARK   78  A    between atoms: _195  and  _197
REMARK   79  A    between atoms: _197  and  _198
REMARK   80  A    between atoms: _200  and  _202
REMARK   81  A    between atoms: _202  and  _203
REMARK   82  A    between atoms: _202  and  _205
REMARK   83  A    between atoms: _205  and  _206
REMARK   84  A    between atoms: _216  and  _218
REMARK   85  A    between atoms: _218  and  _219
REMARK   86  A    between atoms: _222  and  _224
REMARK   87  A    between atoms: _224  and  _225
REMARK   88  A    between atoms: _228  and  _230
REMARK   89  A    between atoms: _230  and  _231
REMARK   90  A    between atoms: _230  and  _233
REMARK   91  A    between atoms: _233  and  _234
REMARK   92  A    between atoms: _237  and  _239
REMARK   93  A    between atoms: _239  and  _240
REMARK   94  A    between atoms: _243  and  _245
REMARK   95  A    between atoms: _245  and  _246
REMARK   96  A    between atoms: _245  and  _248
REMARK   97  A    between atoms: _248  and  _249
REMARK   98  A    between atoms: _249  and  _250
REMARK   99  A    between atoms: _255  and  _257
REMARK  100  A    between atoms: _257  and  _258
REMARK  101  A    between atoms: _257  and  _260
REMARK  102  A    between atoms: _260  and  _261
REMARK  103  A    between atoms: _264  and  _266
REMARK  104  A    between atoms: _266  and  _267
REMARK  105  A    between atoms: _266  and  _269
REMARK  106  A    between atoms: _269  and  _270
REMARK  107  A    between atoms: _273  and  _275
REMARK  108  A    between atoms: _275  and  _276
REMARK  109  A    between atoms: _275  and  _278
REMARK  110  A    between atoms: _278  and  _279
REMARK  111  A    between atoms: _282  and  _284
REMARK  112  A    between atoms: _284  and  _285
REMARK  113  A    between atoms: _284  and  _287
REMARK  114  A    between atoms: _287  and  _288
REMARK  115  A    between atoms: _290  and  _292
REMARK  116  A    between atoms: _292  and  _293
REMARK  117  A    between atoms: _292  and  _295
REMARK  118  A    between atoms: _298  and  _300
REMARK  119  A    between atoms: _300  and  _301
REMARK  120  A    between atoms: _300  and  _303
REMARK  121  A    between atoms: _303  and  _304
REMARK  122  A    between atoms: _304  and  _305
REMARK  123  A    between atoms: _305  and  _306
REMARK  124  A    between atoms: _306  and  _307
REMARK  125  A    between atoms: _311  and  _313
REMARK  126  A    between atoms: _313  and  _314
REMARK  127  A    between atoms: _313  and  _316
REMARK  128  A    between atoms: _316  and  _317
REMARK  129  A    between atoms: _328  and  _329
REMARK  130  A    between atoms: _334  and  _336
REMARK  131  A    between atoms: _336  and  _337
REMARK  132  A    between atoms: _336  and  _339
REMARK  133  A    between atoms: _339  and  _340
REMARK  134  A    between atoms: _345  and  _347
REMARK  135  A    between atoms: _347  and  _348
REMARK  136  A    between atoms: _347  and  _350
REMARK  137  A    between atoms: _350  and  _351
REMARK  138  A    between atoms: _354  and  _356
REMARK  139  A    between atoms: _356  and  _357
REMARK  140  A    between atoms: _356  and  _359
REMARK  141  A    between atoms: _362  and  _364
REMARK  142  A    between atoms: _364  and  _365
REMARK  143  A    between atoms: _367  and  _369
REMARK  144  A    between atoms: _369  and  _370
REMARK  145  A    between atoms: _369  and  _372
REMARK  146  A    between atoms: _372  and  _373
REMARK  147  A    between atoms: _373  and  _374
REMARK  148  A    between atoms: _374  and  _375
REMARK  149  A    between atoms: _375  and  _376
REMARK  150  A    between atoms: _380  and  _382
REMARK  151  A    between atoms: _382  and  _383
REMARK  152  A    between atoms: _382  and  _385
REMARK  153  A    between atoms: _385  and  _386
REMARK  154  A    between atoms: _389  and  _391
REMARK  155  A    between atoms: _391  and  _392
REMARK  156  A    between atoms: _395  and  _397
REMARK  157  A    between atoms: _397  and  _398
REMARK  158  A    between atoms: _400  and  _402
REMARK  159  A    between atoms: _402  and  _403
REMARK  160  A    between atoms: _402  and  _405
REMARK  161  A    between atoms: _405  and  _406
REMARK  162  A    between atoms: _409  and  _411
REMARK  163  A    between atoms: _411  and  _412
REMARK  164  A    between atoms: _411  and  _414
REMARK  165  A    between atoms: _414  and  _415
REMARK  166  A    between atoms: _418  and  _420
REMARK  167  A    between atoms: _420  and  _421
REMARK  168  A    between atoms: _424  and  _426
REMARK  169  A    between atoms: _426  and  _427
REMARK  170  A    between atoms: _426  and  _429
REMARK  171  A    between atoms: _429  and  _430
REMARK  172  A    between atoms: _430  and  _431
REMARK  173  A    between atoms: _434  and  _436
REMARK  174  A    between atoms: _436  and  _437
REMARK  175  A    between atoms: _436  and  _439
REMARK  176  A    between atoms: _442  and  _444
REMARK  177  A    between atoms: _444  and  _445
REMARK  178  A    between atoms: _444  and  _447
REMARK  179  A    between atoms: _447  and  _448
REMARK  180  A    between atoms: _451  and  _453
REMARK  181  A    between atoms: _453  and  _454
REMARK  182  A    between atoms: _456  and  _458
REMARK  183  A    between atoms: _458  and  _459
REMARK  184  A    between atoms: _458  and  _461
REMARK  185  A    between atoms: _464  and  _466
REMARK  186  A    between atoms: _466  and  _467
REMARK  187  A    between atoms: _469  and  _471
REMARK  188  A    between atoms: _471  and  _472
REMARK  189  A    between atoms: _471  and  _474
REMARK  190  A    between atoms: _474  and  _475
REMARK  191  A    between atoms: _478  and  _480
REMARK  192  A    between atoms: _480  and  _481
REMARK  193  A    between atoms: _480  and  _483
REMARK  194  A    between atoms: _483  and  _484
REMARK  195  A    between atoms: _489  and  _491
REMARK  196  A    between atoms: _491  and  _492
REMARK  197  A    between atoms: _491  and  _494
REMARK  198  A    between atoms: _497  and  _499
REMARK  199  A    between atoms: _499  and  _500
REMARK  200  A    between atoms: _499  and  _502
REMARK  201  A    between atoms: _502  and  _503
REMARK  202  A    between atoms: _503  and  _504
REMARK  203  A    between atoms: _509  and  _511
REMARK  204  A    between atoms: _511  and  _512
REMARK  205  A    between atoms: _516  and  _517
REMARK  206  A    between atoms: _522  and  _524
REMARK  207  A    between atoms: _524  and  _525
REMARK  208  A    between atoms: _524  and  _527
REMARK  209  A    between atoms: _527  and  _528
REMARK  210  A    between atoms: _528  and  _529
REMARK  211  A    between atoms: _532  and  _534
REMARK  212  A    between atoms: _534  and  _535
REMARK  213  A    between atoms: _534  and  _537
REMARK  214  A    between atoms: _540  and  _542
REMARK  215  A    between atoms: _542  and  _543
REMARK  216  A    between atoms: _542  and  _545
REMARK  217  A    between atoms: _545  and  _546
REMARK  218  A    between atoms: _550  and  _551
REMARK  219  A    between atoms: _556  and  _558
REMARK  220  A    between atoms: _558  and  _559
REMARK  221  A    between atoms: _558  and  _561
REMARK  222  A    between atoms: _561  and  _562
REMARK  223  A    between atoms: _565  and  _567
REMARK  224  A    between atoms: _567  and  _568
REMARK  225  A    between atoms: _571  and  _573
REMARK  226  A    between atoms: _573  and  _574
REMARK  227  A    between atoms: _573  and  _576
REMARK  228  A    between atoms: _576  and  _577
REMARK  229  A    between atoms: _580  and  _582
REMARK  230  A    between atoms: _582  and  _583
REMARK  231  A    between atoms: _582  and  _585
REMARK  232  A    between atoms: _585  and  _586
REMARK  233  A    between atoms: _588  and  _590
REMARK  234  A    between atoms: _590  and  _591
REMARK  235  A    between atoms: _593  and  _595
REMARK  236  A    between atoms: _595  and  _596
REMARK  237  A    between atoms: _595  and  _598
REMARK  238  A    between atoms: _598  and  _599
REMARK  239  A    between atoms: _602  and  _604
REMARK  240  A    between atoms: _604  and  _605
REMARK  241  A    between atoms: _604  and  _607
REMARK                            x       y       z     vdW  Elec       q    Type
REMARK                         _______ _______ _______ _____ _____    ______ ____
ROOT
ATOM      1  O   HOH     1      -0.923  -4.806  17.703  0.00  0.00    +0.000 OA
ENDROOT
TORSDOF 0
REMARK  Name = ../refined-set-2016/4xu1/4xu1_pocket.pdb
REMARK  241 active torsions:
REMARK  status: ('A' for Active; 'I' for Inactive)
REMARK    1  A    between atoms: _1  and  _3
REMARK    2  A    between atoms: _3  and  _4
REMARK    3  A    between atoms: _3  and  _6
REMARK    4  A    between atoms: _6  and  _7
REMARK    5  A    between atoms: _10  and  _12
REMARK    6  A    between atoms: _12  and  _13
REMARK    7  A    between atoms: _15  and  _17
REMARK    8  A    between atoms: _17  and  _18
REMARK    9  A    between atoms: _17  and  _20
REMARK   10  A    between atoms: _20  and  _21
REMARK   11  A    between atoms: _23  and  _25
REMARK   12  A    between atoms: _25  and  _26
REMARK   13  A    between atoms: _25  and  _28
REMARK   14  A    between atoms: _28  and  _29
REMARK   15  A    between atoms: _32  and  _34
REMARK   16  A    between atoms: _34  and  _35
REMARK   17  A    between atoms: _34  and  _37
REMARK   18  A    between atoms: _37  and  _38
REMARK   19  A    between atoms: _43  and  _45
REMARK   20  A    between atoms: _45  and  _46
REMARK   21  A    between atoms: _49  and  _51
REMARK   22  A    between atoms: _51  and  _52
REMARK   23  A    between atoms: _51  and  _54
REMARK   24  A    between atoms: _54  and  _55
REMARK   25  A    between atoms: _58  and  _60
REMARK   26  A    between atoms: _60  and  _61
REMARK   27  A    between atoms: _60  and  _63
REMARK   28  A    between atoms: _63  and  _64
REMARK   29  A    between atoms: _67  and  _69
REMARK   30  A    between atoms: _69  and  _70
REMARK   31  A    between atoms: _69  and  _72
REMARK   32  A    between atoms: _72  and  _73
REMARK   33  A    between atoms: _76  and  _78
REMARK   34  A    between atoms: _78  and  _79
REMARK   35  A    between atoms: _78  and  _81
REMARK   36  A    between atoms: _81  and  _82
REMARK   37  A    between atoms: _85  and  _87
REMARK   38  A    between atoms: _87  and  _88
REMARK   39  A    between atoms: _91  and  _93
REMARK   40  A    between atoms: _93  and  _94
REMARK   41  A    between atoms: _93  and  _96
REMARK   42  A    between atoms: _96  and  _97
REMARK   43  A    between atoms: _97  and  _98
REMARK   44  A    between atoms: _103  and  _105
REMARK   45  A    between atoms: _105  and  _106
REMARK   46  A    between atoms: _105  and  _108
REMARK   47  A    between atoms: _108  and  _109
REMARK   48  A    between atoms: _112  and  _114
REMARK   49  A    between atoms: _114  and  _115
REMARK   50  A    between atoms: _118  and  _120
REMARK   51  A    between atoms: _120  and  _121
REMARK   52  A    between atoms: _123  and  _125
REMARK   53  A    between atoms: _125  and  _126
REMARK   54  A    between atoms: _125  and  _128
REMARK   55  A    between atoms: _128  and  _129
REMARK   56  A    between atoms: _129  and  _130
REMARK   57  A    between atoms: _130  and  _131
REMARK   58  A    between atoms: _140  and  _142
REMARK   59  A    between atoms: _142  and  _143
REMARK   60  A    between atoms: _145  and  _147
REMARK   61  A    between atoms: _147  and  _148
REMARK   62  A    between atoms: _147  and  _150
REMARK   63  A    between atoms: _150  and  _151
REMARK   64  A    between atoms: _151  and  _152
REMARK   65  A    between atoms: _152  and  _153
REMARK   66  A    between atoms: _162  and  _164
REMARK   67  A    between atoms: _164  and  _165
REMARK   68  A    between atoms: _164  and  _167
REMARK   69  A    between atoms: _167  and  _168
REMARK   70  A    between atoms: _173  and  _175
REMARK   71  A    between atoms: _175  and  _176
REMARK   72  A    between atoms: _178  and  _180
REMARK   73  A    between atoms: _180  and  _181
REMARK   74  A    between atoms: _180  and  _183
REMARK   75  A    between atoms: _183  and  _184
REMARK   76  A    between atoms: _184  and  _185
REMARK   77  A    between atoms: _185  and  _186
REMARK   78  A    between atoms: _195  and  _197
REMARK   79  A    between atoms: _197  and  _198
REMARK   80  A    between atoms: _200  and  _202
REMARK   81  A    between atoms: _202  and  _203
REMARK   82  A    between atoms: _202  and  _205
REMARK   83  A    between atoms: _205  and  _206
REMARK   84  A    between atoms: _216  and  _218
REMARK   85  A    between atoms: _218  and  _219
REMARK   86  A    between atoms: _222  and  _224
REMARK   87  A    between atoms: _224  and  _225
REMARK   88  A    between atoms: _228  and  _230
REMARK   89  A    between atoms: _230  and  _231
REMARK   90  A    between atoms: _230  and  _233
REMARK   91  A    between atoms: _233  and  _234
REMARK   92  A    between atoms: _237  and  _239
REMARK   93  A    between atoms: _239  and  _240
REMARK   94  A    between atoms: _243  and  _245
REMARK   95  A    between atoms: _245  and  _246
REMARK   96  A    between atoms: _245  and  _248
REMARK   97  A    between atoms: _248  and  _249
REMARK   98  A    between atoms: _249  and  _250
REMARK   99  A    between atoms: _255  and  _257
REMARK  100  A    between atoms: _257  and  _258
REMARK  101  A    between atoms: _257  and  _260
REMARK  102  A    between atoms: _260  and  _261
REMARK  103  A    between atoms: _264  and  _266
REMARK  104  A    between atoms: _266  and  _267
REMARK  105  A    between atoms: _266  and  _269
REMARK  106  A    between atoms: _269  and  _270
REMARK  107  A    between atoms: _273  and  _275
REMARK  108  A    between atoms: _275  and  _276
REMARK  109  A    between atoms: _275  and  _278
REMARK  110  A    between atoms: _278  and  _279
REMARK  111  A    between atoms: _282  and  _284
REMARK  112  A    between atoms: _284  and  _285
REMARK  113  A    between atoms: _284  and  _287
REMARK  114  A    between atoms: _287  and  _288
REMARK  115  A    between atoms: _290  and  _292
REMARK  116  A    between atoms: _292  and  _293
REMARK  117  A    between atoms: _292  and  _295
REMARK  118  A    between atoms: _298  and  _300
REMARK  119  A    between atoms: _300  and  _301
REMARK  120  A    between atoms: _300  and  _303
REMARK  121  A    between atoms: _303  and  _304
REMARK  122  A    between atoms: _304  and  _305
REMARK  123  A    between atoms: _305  and  _306
REMARK  124  A    between atoms: _306  and  _307
REMARK  125  A    between atoms: _311  and  _313
REMARK  126  A    between atoms: _313  and  _314
REMARK  127  A    between atoms: _313  and  _316
REMARK  128  A    between atoms: _316  and  _317
REMARK  129  A    between atoms: _328  and  _329
REMARK  130  A    between atoms: _334  and  _336
REMARK  131  A    between atoms: _336  and  _337
REMARK  132  A    between atoms: _336  and  _339
REMARK  133  A    between atoms: _339  and  _340
REMARK  134  A    between atoms: _345  and  _347
REMARK  135  A    between atoms: _347  and  _348
REMARK  136  A    between atoms: _347  and  _350
REMARK  137  A    between atoms: _350  and  _351
REMARK  138  A    between atoms: _354  and  _356
REMARK  139  A    between atoms: _356  and  _357
REMARK  140  A    between atoms: _356  and  _359
REMARK  141  A    between atoms: _362  and  _364
REMARK  142  A    between atoms: _364  and  _365
REMARK  143  A    between atoms: _367  and  _369
REMARK  144  A    between atoms: _369  and  _370
REMARK  145  A    between atoms: _369  and  _372
REMARK  146  A    between atoms: _372  and  _373
REMARK  147  A    between atoms: _373  and  _374
REMARK  148  A    between atoms: _374  and  _375
REMARK  149  A    between atoms: _375  and  _376
REMARK  150  A    between atoms: _380  and  _382
REMARK  151  A    between atoms: _382  and  _383
REMARK  152  A    between atoms: _382  and  _385
REMARK  153  A    between atoms: _385  and  _386
REMARK  154  A    between atoms: _389  and  _391
REMARK  155  A    between atoms: _391  and  _392
REMARK  156  A    between atoms: _395  and  _397
REMARK  157  A    between atoms: _397  and  _398
REMARK  158  A    between atoms: _400  and  _402
REMARK  159  A    between atoms: _402  and  _403
REMARK  160  A    between atoms: _402  and  _405
REMARK  161  A    between atoms: _405  and  _406
REMARK  162  A    between atoms: _409  and  _411
REMARK  163  A    between atoms: _411  and  _412
REMARK  164  A    between atoms: _411  and  _414
REMARK  165  A    between atoms: _414  and  _415
REMARK  166  A    between atoms: _418  and  _420
REMARK  167  A    between atoms: _420  and  _421
REMARK  168  A    between atoms: _424  and  _426
REMARK  169  A    between atoms: _426  and  _427
REMARK  170  A    between atoms: _426  and  _429
REMARK  171  A    between atoms: _429  and  _430
REMARK  172  A    between atoms: _430  and  _431
REMARK  173  A    between atoms: _434  and  _436
REMARK  174  A    between atoms: _436  and  _437
REMARK  175  A    between atoms: _436  and  _439
REMARK  176  A    between atoms: _442  and  _444
REMARK  177  A    between atoms: _444  and  _445
REMARK  178  A    between atoms: _444  and  _447
REMARK  179  A    between atoms: _447  and  _448
REMARK  180  A    between atoms: _451  and  _453
REMARK  181  A    between atoms: _453  and  _454
REMARK  182  A    between atoms: _456  and  _458
REMARK  183  A    between atoms: _458  and  _459
REMARK  184  A    between atoms: _458  and  _461
REMARK  185  A    between atoms: _464  and  _466
REMARK  186  A    between atoms: _466  and  _467
REMARK  187  A    between atoms: _469  and  _471
REMARK  188  A    between atoms: _471  and  _472
REMARK  189  A    between atoms: _471  and  _474
REMARK  190  A    between atoms: _474  and  _475
REMARK  191  A    between atoms: _478  and  _480
REMARK  192  A    between atoms: _480  and  _481
REMARK  193  A    between atoms: _480  and  _483
REMARK  194  A    between atoms: _483  and  _484
REMARK  195  A    between atoms: _489  and  _491
REMARK  196  A    between atoms: _491  and  _492
REMARK  197  A    between atoms: _491  and  _494
REMARK  198  A    between atoms: _497  and  _499
REMARK  199  A    between atoms: _499  and  _500
REMARK  200  A    between atoms: _499  and  _502
REMARK  201  A    between atoms: _502  and  _503
REMARK  202  A    between atoms: _503  and  _504
REMARK  203  A    between atoms: _509  and  _511
REMARK  204  A    between atoms: _511  and  _512
REMARK  205  A    between atoms: _516  and  _517
REMARK  206  A    between atoms: _522  and  _524
REMARK  207  A    between atoms: _524  and  _525
REMARK  208  A    between atoms: _524  and  _527
REMARK  209  A    between atoms: _527  and  _528
REMARK  210  A    between atoms: _528  and  _529
REMARK  211  A    between atoms: _532  and  _534
REMARK  212  A    between atoms: _534  and  _535
REMARK  213  A    between atoms: _534  and  _537
REMARK  214  A    between atoms: _540  and  _542
REMARK  215  A    between atoms: _542  and  _543
REMARK  216  A    between atoms: _542  and  _545
REMARK  217  A    between atoms: _545  and  _546
REMARK  218  A    between atoms: _550  and  _551
REMARK  219  A    between atoms: _556  and  _558
REMARK  220  A    between atoms: _558  and  _559
REMARK  221  A    between atoms: _558  and  _561
REMARK  222  A    between atoms: _561  and  _562
REMARK  223  A    between atoms: _565  and  _567
REMARK  224  A    between atoms: _567  and  _568
REMARK  225  A    between atoms: _571  and  _573
REMARK  226  A    between atoms: _573  and  _574
REMARK  227  A    between atoms: _573  and  _576
REMARK  228  A    between atoms: _576  and  _577
REMARK  229  A    between atoms: _580  and  _582
REMARK  230  A    between atoms: _582  and  _583
REMARK  231  A    between atoms: _582  and  _585
REMARK  232  A    between atoms: _585  and  _586
REMARK  233  A    between atoms: _588  and  _590
REMARK  234  A    between atoms: _590  and  _591
REMARK  235  A    between atoms: _593  and  _595
REMARK  236  A    between atoms: _595  and  _596
REMARK  237  A    between atoms: _595  and  _598
REMARK  238  A    between atoms: _598  and  _599
REMARK  239  A    between atoms: _602  and  _604
REMARK  240  A    between atoms: _604  and  _605
REMARK  241  A    between atoms: _604  and  _607
REMARK                            x       y       z     vdW  Elec       q    Type
REMARK                         _______ _______ _______ _____ _____    ______ ____
ROOT
ATOM      1  O   HOH     1      -5.295 -12.360   1.806  0.00  0.00    +0.000 OA
ENDROOT
TORSDOF 0
REMARK  Name = ../refined-set-2016/4xu1/4xu1_pocket.pdb
REMARK  241 active torsions:
REMARK  status: ('A' for Active; 'I' for Inactive)
REMARK    1  A    between atoms: _1  and  _3
REMARK    2  A    between atoms: _3  and  _4
REMARK    3  A    between atoms: _3  and  _6
REMARK    4  A    between atoms: _6  and  _7
REMARK    5  A    between atoms: _10  and  _12
REMARK    6  A    between atoms: _12  and  _13
REMARK    7  A    between atoms: _15  and  _17
REMARK    8  A    between atoms: _17  and  _18
REMARK    9  A    between atoms: _17  and  _20
REMARK   10  A    between atoms: _20  and  _21
REMARK   11  A    between atoms: _23  and  _25
REMARK   12  A    between atoms: _25  and  _26
REMARK   13  A    between atoms: _25  and  _28
REMARK   14  A    between atoms: _28  and  _29
REMARK   15  A    between atoms: _32  and  _34
REMARK   16  A    between atoms: _34  and  _35
REMARK   17  A    between atoms: _34  and  _37
REMARK   18  A    between atoms: _37  and  _38
REMARK   19  A    between atoms: _43  and  _45
REMARK   20  A    between atoms: _45  and  _46
REMARK   21  A    between atoms: _49  and  _51
REMARK   22  A    between atoms: _51  and  _52
REMARK   23  A    between atoms: _51  and  _54
REMARK   24  A    between atoms: _54  and  _55
REMARK   25  A    between atoms: _58  and  _60
REMARK   26  A    between atoms: _60  and  _61
REMARK   27  A    between atoms: _60  and  _63
REMARK   28  A    between atoms: _63  and  _64
REMARK   29  A    between atoms: _67  and  _69
REMARK   30  A    between atoms: _69  and  _70
REMARK   31  A    between atoms: _69  and  _72
REMARK   32  A    between atoms: _72  and  _73
REMARK   33  A    between atoms: _76  and  _78
REMARK   34  A    between atoms: _78  and  _79
REMARK   35  A    between atoms: _78  and  _81
REMARK   36  A    between atoms: _81  and  _82
REMARK   37  A    between atoms: _85  and  _87
REMARK   38  A    between atoms: _87  and  _88
REMARK   39  A    between atoms: _91  and  _93
REMARK   40  A    between atoms: _93  and  _94
REMARK   41  A    between atoms: _93  and  _96
REMARK   42  A    between atoms: _96  and  _97
REMARK   43  A    between atoms: _97  and  _98
REMARK   44  A    between atoms: _103  and  _105
REMARK   45  A    between atoms: _105  and  _106
REMARK   46  A    between atoms: _105  and  _108
REMARK   47  A    between atoms: _108  and  _109
REMARK   48  A    between atoms: _112  and  _114
REMARK   49  A    between atoms: _114  and  _115
REMARK   50  A    between atoms: _118  and  _120
REMARK   51  A    between atoms: _120  and  _121
REMARK   52  A    between atoms: _123  and  _125
REMARK   53  A    between atoms: _125  and  _126
REMARK   54  A    between atoms: _125  and  _128
REMARK   55  A    between atoms: _128  and  _129
REMARK   56  A    between atoms: _129  and  _130
REMARK   57  A    between atoms: _130  and  _131
REMARK   58  A    between atoms: _140  and  _142
REMARK   59  A    between atoms: _142  and  _143
REMARK   60  A    between atoms: _145  and  _147
REMARK   61  A    between atoms: _147  and  _148
REMARK   62  A    between atoms: _147  and  _150
REMARK   63  A    between atoms: _150  and  _151
REMARK   64  A    between atoms: _151  and  _152
REMARK   65  A    between atoms: _152  and  _153
REMARK   66  A    between atoms: _162  and  _164
REMARK   67  A    between atoms: _164  and  _165
REMARK   68  A    between atoms: _164  and  _167
REMARK   69  A    between atoms: _167  and  _168
REMARK   70  A    between atoms: _173  and  _175
REMARK   71  A    between atoms: _175  and  _176
REMARK   72  A    between atoms: _178  and  _180
REMARK   73  A    between atoms: _180  and  _181
REMARK   74  A    between atoms: _180  and  _183
REMARK   75  A    between atoms: _183  and  _184
REMARK   76  A    between atoms: _184  and  _185
REMARK   77  A    between atoms: _185  and  _186
REMARK   78  A    between atoms: _195  and  _197
REMARK   79  A    between atoms: _197  and  _198
REMARK   80  A    between atoms: _200  and  _202
REMARK   81  A    between atoms: _202  and  _203
REMARK   82  A    between atoms: _202  and  _205
REMARK   83  A    between atoms: _205  and  _206
REMARK   84  A    between atoms: _216  and  _218
REMARK   85  A    between atoms: _218  and  _219
REMARK   86  A    between atoms: _222  and  _224
REMARK   87  A    between atoms: _224  and  _225
REMARK   88  A    between atoms: _228  and  _230
REMARK   89  A    between atoms: _230  and  _231
REMARK   90  A    between atoms: _230  and  _233
REMARK   91  A    between atoms: _233  and  _234
REMARK   92  A    between atoms: _237  and  _239
REMARK   93  A    between atoms: _239  and  _240
REMARK   94  A    between atoms: _243  and  _245
REMARK   95  A    between atoms: _245  and  _246
REMARK   96  A    between atoms: _245  and  _248
REMARK   97  A    between atoms: _248  and  _249
REMARK   98  A    between atoms: _249  and  _250
REMARK   99  A    between atoms: _255  and  _257
REMARK  100  A    between atoms: _257  and  _258
REMARK  101  A    between atoms: _257  and  _260
REMARK  102  A    between atoms: _260  and  _261
REMARK  103  A    between atoms: _264  and  _266
REMARK  104  A    between atoms: _266  and  _267
REMARK  105  A    between atoms: _266  and  _269
REMARK  106  A    between atoms: _269  and  _270
REMARK  107  A    between atoms: _273  and  _275
REMARK  108  A    between atoms: _275  and  _276
REMARK  109  A    between atoms: _275  and  _278
REMARK  110  A    between atoms: _278  and  _279
REMARK  111  A    between atoms: _282  and  _284
REMARK  112  A    between atoms: _284  and  _285
REMARK  113  A    between atoms: _284  and  _287
REMARK  114  A    between atoms: _287  and  _288
REMARK  115  A    between atoms: _290  and  _292
REMARK  116  A    between atoms: _292  and  _293
REMARK  117  A    between atoms: _292  and  _295
REMARK  118  A    between atoms: _298  and  _300
REMARK  119  A    between atoms: _300  and  _301
REMARK  120  A    between atoms: _300  and  _303
REMARK  121  A    between atoms: _303  and  _304
REMARK  122  A    between atoms: _304  and  _305
REMARK  123  A    between atoms: _305  and  _306
REMARK  124  A    between atoms: _306  and  _307
REMARK  125  A    between atoms: _311  and  _313
REMARK  126  A    between atoms: _313  and  _314
REMARK  127  A    between atoms: _313  and  _316
REMARK  128  A    between atoms: _316  and  _317
REMARK  129  A    between atoms: _328  and  _329
REMARK  130  A    between atoms: _334  and  _336
REMARK  131  A    between atoms: _336  and  _337
REMARK  132  A    between atoms: _336  and  _339
REMARK  133  A    between atoms: _339  and  _340
REMARK  134  A    between atoms: _345  and  _347
REMARK  135  A    between atoms: _347  and  _348
REMARK  136  A    between atoms: _347  and  _350
REMARK  137  A    between atoms: _350  and  _351
REMARK  138  A    between atoms: _354  and  _356
REMARK  139  A    between atoms: _356  and  _357
REMARK  140  A    between atoms: _356  and  _359
REMARK  141  A    between atoms: _362  and  _364
REMARK  142  A    between atoms: _364  and  _365
REMARK  143  A    between atoms: _367  and  _369
REMARK  144  A    between atoms: _369  and  _370
REMARK  145  A    between atoms: _369  and  _372
REMARK  146  A    between atoms: _372  and  _373
REMARK  147  A    between atoms: _373  and  _374
REMARK  148  A    between atoms: _374  and  _375
REMARK  149  A    between atoms: _375  and  _376
REMARK  150  A    between atoms: _380  and  _382
REMARK  151  A    between atoms: _382  and  _383
REMARK  152  A    between atoms: _382  and  _385
REMARK  153  A    between atoms: _385  and  _386
REMARK  154  A    between atoms: _389  and  _391
REMARK  155  A    between atoms: _391  and  _392
REMARK  156  A    between atoms: _395  and  _397
REMARK  157  A    between atoms: _397  and  _398
REMARK  158  A    between atoms: _400  and  _402
REMARK  159  A    between atoms: _402  and  _403
REMARK  160  A    between atoms: _402  and  _405
REMARK  161  A    between atoms: _405  and  _406
REMARK  162  A    between atoms: _409  and  _411
REMARK  163  A    between atoms: _411  and  _412
REMARK  164  A    between atoms: _411  and  _414
REMARK  165  A    between atoms: _414  and  _415
REMARK  166  A    between atoms: _418  and  _420
REMARK  167  A    between atoms: _420  and  _421
REMARK  168  A    between atoms: _424  and  _426
REMARK  169  A    between atoms: _426  and  _427
REMARK  170  A    between atoms: _426  and  _429
REMARK  171  A    between atoms: _429  and  _430
REMARK  172  A    between atoms: _430  and  _431
REMARK  173  A    between atoms: _434  and  _436
REMARK  174  A    between atoms: _436  and  _437
REMARK  175  A    between atoms: _436  and  _439
REMARK  176  A    between atoms: _442  and  _444
REMARK  177  A    between atoms: _444  and  _445
REMARK  178  A    between atoms: _444  and  _447
REMARK  179  A    between atoms: _447  and  _448
REMARK  180  A    between atoms: _451  and  _453
REMARK  181  A    between atoms: _453  and  _454
REMARK  182  A    between atoms: _456  and  _458
REMARK  183  A    between atoms: _458  and  _459
REMARK  184  A    between atoms: _458  and  _461
REMARK  185  A    between atoms: _464  and  _466
REMARK  186  A    between atoms: _466  and  _467
REMARK  187  A    between atoms: _469  and  _471
REMARK  188  A    between atoms: _471  and  _472
REMARK  189  A    between atoms: _471  and  _474
REMARK  190  A    between atoms: _474  and  _475
REMARK  191  A    between atoms: _478  and  _480
REMARK  192  A    between atoms: _480  and  _481
REMARK  193  A    between atoms: _480  and  _483
REMARK  194  A    between atoms: _483  and  _484
REMARK  195  A    between atoms: _489  and  _491
REMARK  196  A    between atoms: _491  and  _492
REMARK  197  A    between atoms: _491  and  _494
REMARK  198  A    between atoms: _497  and  _499
REMARK  199  A    between atoms: _499  and  _500
REMARK  200  A    between atoms: _499  and  _502
REMARK  201  A    between atoms: _502  and  _503
REMARK  202  A    between atoms: _503  and  _504
REMARK  203  A    between atoms: _509  and  _511
REMARK  204  A    between atoms: _511  and  _512
REMARK  205  A    between atoms: _516  and  _517
REMARK  206  A    between atoms: _522  and  _524
REMARK  207  A    between atoms: _524  and  _525
REMARK  208  A    between atoms: _524  and  _527
REMARK  209  A    between atoms: _527  and  _528
REMARK  210  A    between atoms: _528  and  _529
REMARK  211  A    between atoms: _532  and  _534
REMARK  212  A    between atoms: _534  and  _535
REMARK  213  A    between atoms: _534  and  _537
REMARK  214  A    between atoms: _540  and  _542
REMARK  215  A    between atoms: _542  and  _543
REMARK  216  A    between atoms: _542  and  _545
REMARK  217  A    between atoms: _545  and  _546
REMARK  218  A    between atoms: _550  and  _551
REMARK  219  A    between atoms: _556  and  _558
REMARK  220  A    between atoms: _558  and  _559
REMARK  221  A    between atoms: _558  and  _561
REMARK  222  A    between atoms: _561  and  _562
REMARK  223  A    between atoms: _565  and  _567
REMARK  224  A    between atoms: _567  and  _568
REMARK  225  A    between atoms: _571  and  _573
REMARK  226  A    between atoms: _573  and  _574
REMARK  227  A    between atoms: _573  and  _576
REMARK  228  A    between atoms: _576  and  _577
REMARK  229  A    between atoms: _580  and  _582
REMARK  230  A    between atoms: _582  and  _583
REMARK  231  A    between atoms: _582  and  _585
REMARK  232  A    between atoms: _585  and  _586
REMARK  233  A    between atoms: _588  and  _590
REMARK  234  A    between atoms: _590  and  _591
REMARK  235  A    between atoms: _593  and  _595
REMARK  236  A    between atoms: _595  and  _596
REMARK  237  A    between atoms: _595  and  _598
REMARK  238  A    between atoms: _598  and  _599
REMARK  239  A    between atoms: _602  and  _604
REMARK  240  A    between atoms: _604  and  _605
REMARK  241  A    between atoms: _604  and  _607
REMARK                            x       y       z     vdW  Elec       q    Type
REMARK                         _______ _______ _______ _____ _____    ______ ____
ROOT
ATOM      1  O   HOH     1      -6.523 -13.406   3.773  0.00  0.00    +0.000 OA
ENDROOT
TORSDOF 0
REMARK  Name = ../refined-set-2016/4xu1/4xu1_pocket.pdb
REMARK  241 active torsions:
REMARK  status: ('A' for Active; 'I' for Inactive)
REMARK    1  A    between atoms: _1  and  _3
REMARK    2  A    between atoms: _3  and  _4
REMARK    3  A    between atoms: _3  and  _6
REMARK    4  A    between atoms: _6  and  _7
REMARK    5  A    between atoms: _10  and  _12
REMARK    6  A    between atoms: _12  and  _13
REMARK    7  A    between atoms: _15  and  _17
REMARK    8  A    between atoms: _17  and  _18
REMARK    9  A    between atoms: _17  and  _20
REMARK   10  A    between atoms: _20  and  _21
REMARK   11  A    between atoms: _23  and  _25
REMARK   12  A    between atoms: _25  and  _26
REMARK   13  A    between atoms: _25  and  _28
REMARK   14  A    between atoms: _28  and  _29
REMARK   15  A    between atoms: _32  and  _34
REMARK   16  A    between atoms: _34  and  _35
REMARK   17  A    between atoms: _34  and  _37
REMARK   18  A    between atoms: _37  and  _38
REMARK   19  A    between atoms: _43  and  _45
REMARK   20  A    between atoms: _45  and  _46
REMARK   21  A    between atoms: _49  and  _51
REMARK   22  A    between atoms: _51  and  _52
REMARK   23  A    between atoms: _51  and  _54
REMARK   24  A    between atoms: _54  and  _55
REMARK   25  A    between atoms: _58  and  _60
REMARK   26  A    between atoms: _60  and  _61
REMARK   27  A    between atoms: _60  and  _63
REMARK   28  A    between atoms: _63  and  _64
REMARK   29  A    between atoms: _67  and  _69
REMARK   30  A    between atoms: _69  and  _70
REMARK   31  A    between atoms: _69  and  _72
REMARK   32  A    between atoms: _72  and  _73
REMARK   33  A    between atoms: _76  and  _78
REMARK   34  A    between atoms: _78  and  _79
REMARK   35  A    between atoms: _78  and  _81
REMARK   36  A    between atoms: _81  and  _82
REMARK   37  A    between atoms: _85  and  _87
REMARK   38  A    between atoms: _87  and  _88
REMARK   39  A    between atoms: _91  and  _93
REMARK   40  A    between atoms: _93  and  _94
REMARK   41  A    between atoms: _93  and  _96
REMARK   42  A    between atoms: _96  and  _97
REMARK   43  A    between atoms: _97  and  _98
REMARK   44  A    between atoms: _103  and  _105
REMARK   45  A    between atoms: _105  and  _106
REMARK   46  A    between atoms: _105  and  _108
REMARK   47  A    between atoms: _108  and  _109
REMARK   48  A    between atoms: _112  and  _114
REMARK   49  A    between atoms: _114  and  _115
REMARK   50  A    between atoms: _118  and  _120
REMARK   51  A    between atoms: _120  and  _121
REMARK   52  A    between atoms: _123  and  _125
REMARK   53  A    between atoms: _125  and  _126
REMARK   54  A    between atoms: _125  and  _128
REMARK   55  A    between atoms: _128  and  _129
REMARK   56  A    between atoms: _129  and  _130
REMARK   57  A    between atoms: _130  and  _131
REMARK   58  A    between atoms: _140  and  _142
REMARK   59  A    between atoms: _142  and  _143
REMARK   60  A    between atoms: _145  and  _147
REMARK   61  A    between atoms: _147  and  _148
REMARK   62  A    between atoms: _147  and  _150
REMARK   63  A    between atoms: _150  and  _151
REMARK   64  A    between atoms: _151  and  _152
REMARK   65  A    between atoms: _152  and  _153
REMARK   66  A    between atoms: _162  and  _164
REMARK   67  A    between atoms: _164  and  _165
REMARK   68  A    between atoms: _164  and  _167
REMARK   69  A    between atoms: _167  and  _168
REMARK   70  A    between atoms: _173  and  _175
REMARK   71  A    between atoms: _175  and  _176
REMARK   72  A    between atoms: _178  and  _180
REMARK   73  A    between atoms: _180  and  _181
REMARK   74  A    between atoms: _180  and  _183
REMARK   75  A    between atoms: _183  and  _184
REMARK   76  A    between atoms: _184  and  _185
REMARK   77  A    between atoms: _185  and  _186
REMARK   78  A    between atoms: _195  and  _197
REMARK   79  A    between atoms: _197  and  _198
REMARK   80  A    between atoms: _200  and  _202
REMARK   81  A    between atoms: _202  and  _203
REMARK   82  A    between atoms: _202  and  _205
REMARK   83  A    between atoms: _205  and  _206
REMARK   84  A    between atoms: _216  and  _218
REMARK   85  A    between atoms: _218  and  _219
REMARK   86  A    between atoms: _222  and  _224
REMARK   87  A    between atoms: _224  and  _225
REMARK   88  A    between atoms: _228  and  _230
REMARK   89  A    between atoms: _230  and  _231
REMARK   90  A    between atoms: _230  and  _233
REMARK   91  A    between atoms: _233  and  _234
REMARK   92  A    between atoms: _237  and  _239
REMARK   93  A    between atoms: _239  and  _240
REMARK   94  A    between atoms: _243  and  _245
REMARK   95  A    between atoms: _245  and  _246
REMARK   96  A    between atoms: _245  and  _248
REMARK   97  A    between atoms: _248  and  _249
REMARK   98  A    between atoms: _249  and  _250
REMARK   99  A    between atoms: _255  and  _257
REMARK  100  A    between atoms: _257  and  _258
REMARK  101  A    between atoms: _257  and  _260
REMARK  102  A    between atoms: _260  and  _261
REMARK  103  A    between atoms: _264  and  _266
REMARK  104  A    between atoms: _266  and  _267
REMARK  105  A    between atoms: _266  and  _269
REMARK  106  A    between atoms: _269  and  _270
REMARK  107  A    between atoms: _273  and  _275
REMARK  108  A    between atoms: _275  and  _276
REMARK  109  A    between atoms: _275  and  _278
REMARK  110  A    between atoms: _278  and  _279
REMARK  111  A    between atoms: _282  and  _284
REMARK  112  A    between atoms: _284  and  _285
REMARK  113  A    between atoms: _284  and  _287
REMARK  114  A    between atoms: _287  and  _288
REMARK  115  A    between atoms: _290  and  _292
REMARK  116  A    between atoms: _292  and  _293
REMARK  117  A    between atoms: _292  and  _295
REMARK  118  A    between atoms: _298  and  _300
REMARK  119  A    between atoms: _300  and  _301
REMARK  120  A    between atoms: _300  and  _303
REMARK  121  A    between atoms: _303  and  _304
REMARK  122  A    between atoms: _304  and  _305
REMARK  123  A    between atoms: _305  and  _306
REMARK  124  A    between atoms: _306  and  _307
REMARK  125  A    between atoms: _311  and  _313
REMARK  126  A    between atoms: _313  and  _314
REMARK  127  A    between atoms: _313  and  _316
REMARK  128  A    between atoms: _316  and  _317
REMARK  129  A    between atoms: _328  and  _329
REMARK  130  A    between atoms: _334  and  _336
REMARK  131  A    between atoms: _336  and  _337
REMARK  132  A    between atoms: _336  and  _339
REMARK  133  A    between atoms: _339  and  _340
REMARK  134  A    between atoms: _345  and  _347
REMARK  135  A    between atoms: _347  and  _348
REMARK  136  A    between atoms: _347  and  _350
REMARK  137  A    between atoms: _350  and  _351
REMARK  138  A    between atoms: _354  and  _356
REMARK  139  A    between atoms: _356  and  _357
REMARK  140  A    between atoms: _356  and  _359
REMARK  141  A    between atoms: _362  and  _364
REMARK  142  A    between atoms: _364  and  _365
REMARK  143  A    between atoms: _367  and  _369
REMARK  144  A    between atoms: _369  and  _370
REMARK  145  A    between atoms: _369  and  _372
REMARK  146  A    between atoms: _372  and  _373
REMARK  147  A    between atoms: _373  and  _374
REMARK  148  A    between atoms: _374  and  _375
REMARK  149  A    between atoms: _375  and  _376
REMARK  150  A    between atoms: _380  and  _382
REMARK  151  A    between atoms: _382  and  _383
REMARK  152  A    between atoms: _382  and  _385
REMARK  153  A    between atoms: _385  and  _386
REMARK  154  A    between atoms: _389  and  _391
REMARK  155  A    between atoms: _391  and  _392
REMARK  156  A    between atoms: _395  and  _397
REMARK  157  A    between atoms: _397  and  _398
REMARK  158  A    between atoms: _400  and  _402
REMARK  159  A    between atoms: _402  and  _403
REMARK  160  A    between atoms: _402  and  _405
REMARK  161  A    between atoms: _405  and  _406
REMARK  162  A    between atoms: _409  and  _411
REMARK  163  A    between atoms: _411  and  _412
REMARK  164  A    between atoms: _411  and  _414
REMARK  165  A    between atoms: _414  and  _415
REMARK  166  A    between atoms: _418  and  _420
REMARK  167  A    between atoms: _420  and  _421
REMARK  168  A    between atoms: _424  and  _426
REMARK  169  A    between atoms: _426  and  _427
REMARK  170  A    between atoms: _426  and  _429
REMARK  171  A    between atoms: _429  and  _430
REMARK  172  A    between atoms: _430  and  _431
REMARK  173  A    between atoms: _434  and  _436
REMARK  174  A    between atoms: _436  and  _437
REMARK  175  A    between atoms: _436  and  _439
REMARK  176  A    between atoms: _442  and  _444
REMARK  177  A    between atoms: _444  and  _445
REMARK  178  A    between atoms: _444  and  _447
REMARK  179  A    between atoms: _447  and  _448
REMARK  180  A    between atoms: _451  and  _453
REMARK  181  A    between atoms: _453  and  _454
REMARK  182  A    between atoms: _456  and  _458
REMARK  183  A    between atoms: _458  and  _459
REMARK  184  A    between atoms: _458  and  _461
REMARK  185  A    between atoms: _464  and  _466
REMARK  186  A    between atoms: _466  and  _467
REMARK  187  A    between atoms: _469  and  _471
REMARK  188  A    between atoms: _471  and  _472
REMARK  189  A    between atoms: _471  and  _474
REMARK  190  A    between atoms: _474  and  _475
REMARK  191  A    between atoms: _478  and  _480
REMARK  192  A    between atoms: _480  and  _481
REMARK  193  A    between atoms: _480  and  _483
REMARK  194  A    between atoms: _483  and  _484
REMARK  195  A    between atoms: _489  and  _491
REMARK  196  A    between atoms: _491  and  _492
REMARK  197  A    between atoms: _491  and  _494
REMARK  198  A    between atoms: _497  and  _499
REMARK  199  A    between atoms: _499  and  _500
REMARK  200  A    between atoms: _499  and  _502
REMARK  201  A    between atoms: _502  and  _503
REMARK  202  A    between atoms: _503  and  _504
REMARK  203  A    between atoms: _509  and  _511
REMARK  204  A    between atoms: _511  and  _512
REMARK  205  A    between atoms: _516  and  _517
REMARK  206  A    between atoms: _522  and  _524
REMARK  207  A    between atoms: _524  and  _525
REMARK  208  A    between atoms: _524  and  _527
REMARK  209  A    between atoms: _527  and  _528
REMARK  210  A    between atoms: _528  and  _529
REMARK  211  A    between atoms: _532  and  _534
REMARK  212  A    between atoms: _534  and  _535
REMARK  213  A    between atoms: _534  and  _537
REMARK  214  A    between atoms: _540  and  _542
REMARK  215  A    between atoms: _542  and  _543
REMARK  216  A    between atoms: _542  and  _545
REMARK  217  A    between atoms: _545  and  _546
REMARK  218  A    between atoms: _550  and  _551
REMARK  219  A    between atoms: _556  and  _558
REMARK  220  A    between atoms: _558  and  _559
REMARK  221  A    between atoms: _558  and  _561
REMARK  222  A    between atoms: _561  and  _562
REMARK  223  A    between atoms: _565  and  _567
REMARK  224  A    between atoms: _567  and  _568
REMARK  225  A    between atoms: _571  and  _573
REMARK  226  A    between atoms: _573  and  _574
REMARK  227  A    between atoms: _573  and  _576
REMARK  228  A    between atoms: _576  and  _577
REMARK  229  A    between atoms: _580  and  _582
REMARK  230  A    between atoms: _582  and  _583
REMARK  231  A    between atoms: _582  and  _585
REMARK  232  A    between atoms: _585  and  _586
REMARK  233  A    between atoms: _588  and  _590
REMARK  234  A    between atoms: _590  and  _591
REMARK  235  A    between atoms: _593  and  _595
REMARK  236  A    between atoms: _595  and  _596
REMARK  237  A    between atoms: _595  and  _598
REMARK  238  A    between atoms: _598  and  _599
REMARK  239  A    between atoms: _602  and  _604
REMARK  240  A    between atoms: _604  and  _605
REMARK  241  A    between atoms: _604  and  _607
REMARK                            x       y       z     vdW  Elec       q    Type
REMARK                         _______ _______ _______ _____ _____    ______ ____
ROOT
ATOM      1  O   HOH     1      -1.099  -0.069  12.092  0.00  0.00    +0.000 OA
ENDROOT
TORSDOF 0
REMARK  Name = ../refined-set-2016/4xu1/4xu1_pocket.pdb
REMARK  241 active torsions:
REMARK  status: ('A' for Active; 'I' for Inactive)
REMARK    1  A    between atoms: _1  and  _3
REMARK    2  A    between atoms: _3  and  _4
REMARK    3  A    between atoms: _3  and  _6
REMARK    4  A    between atoms: _6  and  _7
REMARK    5  A    between atoms: _10  and  _12
REMARK    6  A    between atoms: _12  and  _13
REMARK    7  A    between atoms: _15  and  _17
REMARK    8  A    between atoms: _17  and  _18
REMARK    9  A    between atoms: _17  and  _20
REMARK   10  A    between atoms: _20  and  _21
REMARK   11  A    between atoms: _23  and  _25
REMARK   12  A    between atoms: _25  and  _26
REMARK   13  A    between atoms: _25  and  _28
REMARK   14  A    between atoms: _28  and  _29
REMARK   15  A    between atoms: _32  and  _34
REMARK   16  A    between atoms: _34  and  _35
REMARK   17  A    between atoms: _34  and  _37
REMARK   18  A    between atoms: _37  and  _38
REMARK   19  A    between atoms: _43  and  _45
REMARK   20  A    between atoms: _45  and  _46
REMARK   21  A    between atoms: _49  and  _51
REMARK   22  A    between atoms: _51  and  _52
REMARK   23  A    between atoms: _51  and  _54
REMARK   24  A    between atoms: _54  and  _55
REMARK   25  A    between atoms: _58  and  _60
REMARK   26  A    between atoms: _60  and  _61
REMARK   27  A    between atoms: _60  and  _63
REMARK   28  A    between atoms: _63  and  _64
REMARK   29  A    between atoms: _67  and  _69
REMARK   30  A    between atoms: _69  and  _70
REMARK   31  A    between atoms: _69  and  _72
REMARK   32  A    between atoms: _72  and  _73
REMARK   33  A    between atoms: _76  and  _78
REMARK   34  A    between atoms: _78  and  _79
REMARK   35  A    between atoms: _78  and  _81
REMARK   36  A    between atoms: _81  and  _82
REMARK   37  A    between atoms: _85  and  _87
REMARK   38  A    between atoms: _87  and  _88
REMARK   39  A    between atoms: _91  and  _93
REMARK   40  A    between atoms: _93  and  _94
REMARK   41  A    between atoms: _93  and  _96
REMARK   42  A    between atoms: _96  and  _97
REMARK   43  A    between atoms: _97  and  _98
REMARK   44  A    between atoms: _103  and  _105
REMARK   45  A    between atoms: _105  and  _106
REMARK   46  A    between atoms: _105  and  _108
REMARK   47  A    between atoms: _108  and  _109
REMARK   48  A    between atoms: _112  and  _114
REMARK   49  A    between atoms: _114  and  _115
REMARK   50  A    between atoms: _118  and  _120
REMARK   51  A    between atoms: _120  and  _121
REMARK   52  A    between atoms: _123  and  _125
REMARK   53  A    between atoms: _125  and  _126
REMARK   54  A    between atoms: _125  and  _128
REMARK   55  A    between atoms: _128  and  _129
REMARK   56  A    between atoms: _129  and  _130
REMARK   57  A    between atoms: _130  and  _131
REMARK   58  A    between atoms: _140  and  _142
REMARK   59  A    between atoms: _142  and  _143
REMARK   60  A    between atoms: _145  and  _147
REMARK   61  A    between atoms: _147  and  _148
REMARK   62  A    between atoms: _147  and  _150
REMARK   63  A    between atoms: _150  and  _151
REMARK   64  A    between atoms: _151  and  _152
REMARK   65  A    between atoms: _152  and  _153
REMARK   66  A    between atoms: _162  and  _164
REMARK   67  A    between atoms: _164  and  _165
REMARK   68  A    between atoms: _164  and  _167
REMARK   69  A    between atoms: _167  and  _168
REMARK   70  A    between atoms: _173  and  _175
REMARK   71  A    between atoms: _175  and  _176
REMARK   72  A    between atoms: _178  and  _180
REMARK   73  A    between atoms: _180  and  _181
REMARK   74  A    between atoms: _180  and  _183
REMARK   75  A    between atoms: _183  and  _184
REMARK   76  A    between atoms: _184  and  _185
REMARK   77  A    between atoms: _185  and  _186
REMARK   78  A    between atoms: _195  and  _197
REMARK   79  A    between atoms: _197  and  _198
REMARK   80  A    between atoms: _200  and  _202
REMARK   81  A    between atoms: _202  and  _203
REMARK   82  A    between atoms: _202  and  _205
REMARK   83  A    between atoms: _205  and  _206
REMARK   84  A    between atoms: _216  and  _218
REMARK   85  A    between atoms: _218  and  _219
REMARK   86  A    between atoms: _222  and  _224
REMARK   87  A    between atoms: _224  and  _225
REMARK   88  A    between atoms: _228  and  _230
REMARK   89  A    between atoms: _230  and  _231
REMARK   90  A    between atoms: _230  and  _233
REMARK   91  A    between atoms: _233  and  _234
REMARK   92  A    between atoms: _237  and  _239
REMARK   93  A    between atoms: _239  and  _240
REMARK   94  A    between atoms: _243  and  _245
REMARK   95  A    between atoms: _245  and  _246
REMARK   96  A    between atoms: _245  and  _248
REMARK   97  A    between atoms: _248  and  _249
REMARK   98  A    between atoms: _249  and  _250
REMARK   99  A    between atoms: _255  and  _257
REMARK  100  A    between atoms: _257  and  _258
REMARK  101  A    between atoms: _257  and  _260
REMARK  102  A    between atoms: _260  and  _261
REMARK  103  A    between atoms: _264  and  _266
REMARK  104  A    between atoms: _266  and  _267
REMARK  105  A    between atoms: _266  and  _269
REMARK  106  A    between atoms: _269  and  _270
REMARK  107  A    between atoms: _273  and  _275
REMARK  108  A    between atoms: _275  and  _276
REMARK  109  A    between atoms: _275  and  _278
REMARK  110  A    between atoms: _278  and  _279
REMARK  111  A    between atoms: _282  and  _284
REMARK  112  A    between atoms: _284  and  _285
REMARK  113  A    between atoms: _284  and  _287
REMARK  114  A    between atoms: _287  and  _288
REMARK  115  A    between atoms: _290  and  _292
REMARK  116  A    between atoms: _292  and  _293
REMARK  117  A    between atoms: _292  and  _295
REMARK  118  A    between atoms: _298  and  _300
REMARK  119  A    between atoms: _300  and  _301
REMARK  120  A    between atoms: _300  and  _303
REMARK  121  A    between atoms: _303  and  _304
REMARK  122  A    between atoms: _304  and  _305
REMARK  123  A    between atoms: _305  and  _306
REMARK  124  A    between atoms: _306  and  _307
REMARK  125  A    between atoms: _311  and  _313
REMARK  126  A    between atoms: _313  and  _314
REMARK  127  A    between atoms: _313  and  _316
REMARK  128  A    between atoms: _316  and  _317
REMARK  129  A    between atoms: _328  and  _329
REMARK  130  A    between atoms: _334  and  _336
REMARK  131  A    between atoms: _336  and  _337
REMARK  132  A    between atoms: _336  and  _339
REMARK  133  A    between atoms: _339  and  _340
REMARK  134  A    between atoms: _345  and  _347
REMARK  135  A    between atoms: _347  and  _348
REMARK  136  A    between atoms: _347  and  _350
REMARK  137  A    between atoms: _350  and  _351
REMARK  138  A    between atoms: _354  and  _356
REMARK  139  A    between atoms: _356  and  _357
REMARK  140  A    between atoms: _356  and  _359
REMARK  141  A    between atoms: _362  and  _364
REMARK  142  A    between atoms: _364  and  _365
REMARK  143  A    between atoms: _367  and  _369
REMARK  144  A    between atoms: _369  and  _370
REMARK  145  A    between atoms: _369  and  _372
REMARK  146  A    between atoms: _372  and  _373
REMARK  147  A    between atoms: _373  and  _374
REMARK  148  A    between atoms: _374  and  _375
REMARK  149  A    between atoms: _375  and  _376
REMARK  150  A    between atoms: _380  and  _382
REMARK  151  A    between atoms: _382  and  _383
REMARK  152  A    between atoms: _382  and  _385
REMARK  153  A    between atoms: _385  and  _386
REMARK  154  A    between atoms: _389  and  _391
REMARK  155  A    between atoms: _391  and  _392
REMARK  156  A    between atoms: _395  and  _397
REMARK  157  A    between atoms: _397  and  _398
REMARK  158  A    between atoms: _400  and  _402
REMARK  159  A    between atoms: _402  and  _403
REMARK  160  A    between atoms: _402  and  _405
REMARK  161  A    between atoms: _405  and  _406
REMARK  162  A    between atoms: _409  and  _411
REMARK  163  A    between atoms: _411  and  _412
REMARK  164  A    between atoms: _411  and  _414
REMARK  165  A    between atoms: _414  and  _415
REMARK  166  A    between atoms: _418  and  _420
REMARK  167  A    between atoms: _420  and  _421
REMARK  168  A    between atoms: _424  and  _426
REMARK  169  A    between atoms: _426  and  _427
REMARK  170  A    between atoms: _426  and  _429
REMARK  171  A    between atoms: _429  and  _430
REMARK  172  A    between atoms: _430  and  _431
REMARK  173  A    between atoms: _434  and  _436
REMARK  174  A    between atoms: _436  and  _437
REMARK  175  A    between atoms: _436  and  _439
REMARK  176  A    between atoms: _442  and  _444
REMARK  177  A    between atoms: _444  and  _445
REMARK  178  A    between atoms: _444  and  _447
REMARK  179  A    between atoms: _447  and  _448
REMARK  180  A    between atoms: _451  and  _453
REMARK  181  A    between atoms: _453  and  _454
REMARK  182  A    between atoms: _456  and  _458
REMARK  183  A    between atoms: _458  and  _459
REMARK  184  A    between atoms: _458  and  _461
REMARK  185  A    between atoms: _464  and  _466
REMARK  186  A    between atoms: _466  and  _467
REMARK  187  A    between atoms: _469  and  _471
REMARK  188  A    between atoms: _471  and  _472
REMARK  189  A    between atoms: _471  and  _474
REMARK  190  A    between atoms: _474  and  _475
REMARK  191  A    between atoms: _478  and  _480
REMARK  192  A    between atoms: _480  and  _481
REMARK  193  A    between atoms: _480  and  _483
REMARK  194  A    between atoms: _483  and  _484
REMARK  195  A    between atoms: _489  and  _491
REMARK  196  A    between atoms: _491  and  _492
REMARK  197  A    between atoms: _491  and  _494
REMARK  198  A    between atoms: _497  and  _499
REMARK  199  A    between atoms: _499  and  _500
REMARK  200  A    between atoms: _499  and  _502
REMARK  201  A    between atoms: _502  and  _503
REMARK  202  A    between atoms: _503  and  _504
REMARK  203  A    between atoms: _509  and  _511
REMARK  204  A    between atoms: _511  and  _512
REMARK  205  A    between atoms: _516  and  _517
REMARK  206  A    between atoms: _522  and  _524
REMARK  207  A    between atoms: _524  and  _525
REMARK  208  A    between atoms: _524  and  _527
REMARK  209  A    between atoms: _527  and  _528
REMARK  210  A    between atoms: _528  and  _529
REMARK  211  A    between atoms: _532  and  _534
REMARK  212  A    between atoms: _534  and  _535
REMARK  213  A    between atoms: _534  and  _537
REMARK  214  A    between atoms: _540  and  _542
REMARK  215  A    between atoms: _542  and  _543
REMARK  216  A    between atoms: _542  and  _545
REMARK  217  A    between atoms: _545  and  _546
REMARK  218  A    between atoms: _550  and  _551
REMARK  219  A    between atoms: _556  and  _558
REMARK  220  A    between atoms: _558  and  _559
REMARK  221  A    between atoms: _558  and  _561
REMARK  222  A    between atoms: _561  and  _562
REMARK  223  A    between atoms: _565  and  _567
REMARK  224  A    between atoms: _567  and  _568
REMARK  225  A    between atoms: _571  and  _573
REMARK  226  A    between atoms: _573  and  _574
REMARK  227  A    between atoms: _573  and  _576
REMARK  228  A    between atoms: _576  and  _577
REMARK  229  A    between atoms: _580  and  _582
REMARK  230  A    between atoms: _582  and  _583
REMARK  231  A    between atoms: _582  and  _585
REMARK  232  A    between atoms: _585  and  _586
REMARK  233  A    between atoms: _588  and  _590
REMARK  234  A    between atoms: _590  and  _591
REMARK  235  A    between atoms: _593  and  _595
REMARK  236  A    between atoms: _595  and  _596
REMARK  237  A    between atoms: _595  and  _598
REMARK  238  A    between atoms: _598  and  _599
REMARK  239  A    between atoms: _602  and  _604
REMARK  240  A    between atoms: _604  and  _605
REMARK  241  A    between atoms: _604  and  _607
REMARK                            x       y       z     vdW  Elec       q    Type
REMARK                         _______ _______ _______ _____ _____    ______ ____
ROOT
ATOM      1  O   HOH     1       0.821  -0.614  13.807  0.00  0.00    +0.000 OA
ENDROOT
TORSDOF 0
REMARK  Name = ../refined-set-2016/4xu1/4xu1_pocket.pdb
REMARK  241 active torsions:
REMARK  status: ('A' for Active; 'I' for Inactive)
REMARK    1  A    between atoms: _1  and  _3
REMARK    2  A    between atoms: _3  and  _4
REMARK    3  A    between atoms: _3  and  _6
REMARK    4  A    between atoms: _6  and  _7
REMARK    5  A    between atoms: _10  and  _12
REMARK    6  A    between atoms: _12  and  _13
REMARK    7  A    between atoms: _15  and  _17
REMARK    8  A    between atoms: _17  and  _18
REMARK    9  A    between atoms: _17  and  _20
REMARK   10  A    between atoms: _20  and  _21
REMARK   11  A    between atoms: _23  and  _25
REMARK   12  A    between atoms: _25  and  _26
REMARK   13  A    between atoms: _25  and  _28
REMARK   14  A    between atoms: _28  and  _29
REMARK   15  A    between atoms: _32  and  _34
REMARK   16  A    between atoms: _34  and  _35
REMARK   17  A    between atoms: _34  and  _37
REMARK   18  A    between atoms: _37  and  _38
REMARK   19  A    between atoms: _43  and  _45
REMARK   20  A    between atoms: _45  and  _46
REMARK   21  A    between atoms: _49  and  _51
REMARK   22  A    between atoms: _51  and  _52
REMARK   23  A    between atoms: _51  and  _54
REMARK   24  A    between atoms: _54  and  _55
REMARK   25  A    between atoms: _58  and  _60
REMARK   26  A    between atoms: _60  and  _61
REMARK   27  A    between atoms: _60  and  _63
REMARK   28  A    between atoms: _63  and  _64
REMARK   29  A    between atoms: _67  and  _69
REMARK   30  A    between atoms: _69  and  _70
REMARK   31  A    between atoms: _69  and  _72
REMARK   32  A    between atoms: _72  and  _73
REMARK   33  A    between atoms: _76  and  _78
REMARK   34  A    between atoms: _78  and  _79
REMARK   35  A    between atoms: _78  and  _81
REMARK   36  A    between atoms: _81  and  _82
REMARK   37  A    between atoms: _85  and  _87
REMARK   38  A    between atoms: _87  and  _88
REMARK   39  A    between atoms: _91  and  _93
REMARK   40  A    between atoms: _93  and  _94
REMARK   41  A    between atoms: _93  and  _96
REMARK   42  A    between atoms: _96  and  _97
REMARK   43  A    between atoms: _97  and  _98
REMARK   44  A    between atoms: _103  and  _105
REMARK   45  A    between atoms: _105  and  _106
REMARK   46  A    between atoms: _105  and  _108
REMARK   47  A    between atoms: _108  and  _109
REMARK   48  A    between atoms: _112  and  _114
REMARK   49  A    between atoms: _114  and  _115
REMARK   50  A    between atoms: _118  and  _120
REMARK   51  A    between atoms: _120  and  _121
REMARK   52  A    between atoms: _123  and  _125
REMARK   53  A    between atoms: _125  and  _126
REMARK   54  A    between atoms: _125  and  _128
REMARK   55  A    between atoms: _128  and  _129
REMARK   56  A    between atoms: _129  and  _130
REMARK   57  A    between atoms: _130  and  _131
REMARK   58  A    between atoms: _140  and  _142
REMARK   59  A    between atoms: _142  and  _143
REMARK   60  A    between atoms: _145  and  _147
REMARK   61  A    between atoms: _147  and  _148
REMARK   62  A    between atoms: _147  and  _150
REMARK   63  A    between atoms: _150  and  _151
REMARK   64  A    between atoms: _151  and  _152
REMARK   65  A    between atoms: _152  and  _153
REMARK   66  A    between atoms: _162  and  _164
REMARK   67  A    between atoms: _164  and  _165
REMARK   68  A    between atoms: _164  and  _167
REMARK   69  A    between atoms: _167  and  _168
REMARK   70  A    between atoms: _173  and  _175
REMARK   71  A    between atoms: _175  and  _176
REMARK   72  A    between atoms: _178  and  _180
REMARK   73  A    between atoms: _180  and  _181
REMARK   74  A    between atoms: _180  and  _183
REMARK   75  A    between atoms: _183  and  _184
REMARK   76  A    between atoms: _184  and  _185
REMARK   77  A    between atoms: _185  and  _186
REMARK   78  A    between atoms: _195  and  _197
REMARK   79  A    between atoms: _197  and  _198
REMARK   80  A    between atoms: _200  and  _202
REMARK   81  A    between atoms: _202  and  _203
REMARK   82  A    between atoms: _202  and  _205
REMARK   83  A    between atoms: _205  and  _206
REMARK   84  A    between atoms: _216  and  _218
REMARK   85  A    between atoms: _218  and  _219
REMARK   86  A    between atoms: _222  and  _224
REMARK   87  A    between atoms: _224  and  _225
REMARK   88  A    between atoms: _228  and  _230
REMARK   89  A    between atoms: _230  and  _231
REMARK   90  A    between atoms: _230  and  _233
REMARK   91  A    between atoms: _233  and  _234
REMARK   92  A    between atoms: _237  and  _239
REMARK   93  A    between atoms: _239  and  _240
REMARK   94  A    between atoms: _243  and  _245
REMARK   95  A    between atoms: _245  and  _246
REMARK   96  A    between atoms: _245  and  _248
REMARK   97  A    between atoms: _248  and  _249
REMARK   98  A    between atoms: _249  and  _250
REMARK   99  A    between atoms: _255  and  _257
REMARK  100  A    between atoms: _257  and  _258
REMARK  101  A    between atoms: _257  and  _260
REMARK  102  A    between atoms: _260  and  _261
REMARK  103  A    between atoms: _264  and  _266
REMARK  104  A    between atoms: _266  and  _267
REMARK  105  A    between atoms: _266  and  _269
REMARK  106  A    between atoms: _269  and  _270
REMARK  107  A    between atoms: _273  and  _275
REMARK  108  A    between atoms: _275  and  _276
REMARK  109  A    between atoms: _275  and  _278
REMARK  110  A    between atoms: _278  and  _279
REMARK  111  A    between atoms: _282  and  _284
REMARK  112  A    between atoms: _284  and  _285
REMARK  113  A    between atoms: _284  and  _287
REMARK  114  A    between atoms: _287  and  _288
REMARK  115  A    between atoms: _290  and  _292
REMARK  116  A    between atoms: _292  and  _293
REMARK  117  A    between atoms: _292  and  _295
REMARK  118  A    between atoms: _298  and  _300
REMARK  119  A    between atoms: _300  and  _301
REMARK  120  A    between atoms: _300  and  _303
REMARK  121  A    between atoms: _303  and  _304
REMARK  122  A    between atoms: _304  and  _305
REMARK  123  A    between atoms: _305  and  _306
REMARK  124  A    between atoms: _306  and  _307
REMARK  125  A    between atoms: _311  and  _313
REMARK  126  A    between atoms: _313  and  _314
REMARK  127  A    between atoms: _313  and  _316
REMARK  128  A    between atoms: _316  and  _317
REMARK  129  A    between atoms: _328  and  _329
REMARK  130  A    between atoms: _334  and  _336
REMARK  131  A    between atoms: _336  and  _337
REMARK  132  A    between atoms: _336  and  _339
REMARK  133  A    between atoms: _339  and  _340
REMARK  134  A    between atoms: _345  and  _347
REMARK  135  A    between atoms: _347  and  _348
REMARK  136  A    between atoms: _347  and  _350
REMARK  137  A    between atoms: _350  and  _351
REMARK  138  A    between atoms: _354  and  _356
REMARK  139  A    between atoms: _356  and  _357
REMARK  140  A    between atoms: _356  and  _359
REMARK  141  A    between atoms: _362  and  _364
REMARK  142  A    between atoms: _364  and  _365
REMARK  143  A    between atoms: _367  and  _369
REMARK  144  A    between atoms: _369  and  _370
REMARK  145  A    between atoms: _369  and  _372
REMARK  146  A    between atoms: _372  and  _373
REMARK  147  A    between atoms: _373  and  _374
REMARK  148  A    between atoms: _374  and  _375
REMARK  149  A    between atoms: _375  and  _376
REMARK  150  A    between atoms: _380  and  _382
REMARK  151  A    between atoms: _382  and  _383
REMARK  152  A    between atoms: _382  and  _385
REMARK  153  A    between atoms: _385  and  _386
REMARK  154  A    between atoms: _389  and  _391
REMARK  155  A    between atoms: _391  and  _392
REMARK  156  A    between atoms: _395  and  _397
REMARK  157  A    between atoms: _397  and  _398
REMARK  158  A    between atoms: _400  and  _402
REMARK  159  A    between atoms: _402  and  _403
REMARK  160  A    between atoms: _402  and  _405
REMARK  161  A    between atoms: _405  and  _406
REMARK  162  A    between atoms: _409  and  _411
REMARK  163  A    between atoms: _411  and  _412
REMARK  164  A    between atoms: _411  and  _414
REMARK  165  A    between atoms: _414  and  _415
REMARK  166  A    between atoms: _418  and  _420
REMARK  167  A    between atoms: _420  and  _421
REMARK  168  A    between atoms: _424  and  _426
REMARK  169  A    between atoms: _426  and  _427
REMARK  170  A    between atoms: _426  and  _429
REMARK  171  A    between atoms: _429  and  _430
REMARK  172  A    between atoms: _430  and  _431
REMARK  173  A    between atoms: _434  and  _436
REMARK  174  A    between atoms: _436  and  _437
REMARK  175  A    between atoms: _436  and  _439
REMARK  176  A    between atoms: _442  and  _444
REMARK  177  A    between atoms: _444  and  _445
REMARK  178  A    between atoms: _444  and  _447
REMARK  179  A    between atoms: _447  and  _448
REMARK  180  A    between atoms: _451  and  _453
REMARK  181  A    between atoms: _453  and  _454
REMARK  182  A    between atoms: _456  and  _458
REMARK  183  A    between atoms: _458  and  _459
REMARK  184  A    between atoms: _458  and  _461
REMARK  185  A    between atoms: _464  and  _466
REMARK  186  A    between atoms: _466  and  _467
REMARK  187  A    between atoms: _469  and  _471
REMARK  188  A    between atoms: _471  and  _472
REMARK  189  A    between atoms: _471  and  _474
REMARK  190  A    between atoms: _474  and  _475
REMARK  191  A    between atoms: _478  and  _480
REMARK  192  A    between atoms: _480  and  _481
REMARK  193  A    between atoms: _480  and  _483
REMARK  194  A    between atoms: _483  and  _484
REMARK  195  A    between atoms: _489  and  _491
REMARK  196  A    between atoms: _491  and  _492
REMARK  197  A    between atoms: _491  and  _494
REMARK  198  A    between atoms: _497  and  _499
REMARK  199  A    between atoms: _499  and  _500
REMARK  200  A    between atoms: _499  and  _502
REMARK  201  A    between atoms: _502  and  _503
REMARK  202  A    between atoms: _503  and  _504
REMARK  203  A    between atoms: _509  and  _511
REMARK  204  A    between atoms: _511  and  _512
REMARK  205  A    between atoms: _516  and  _517
REMARK  206  A    between atoms: _522  and  _524
REMARK  207  A    between atoms: _524  and  _525
REMARK  208  A    between atoms: _524  and  _527
REMARK  209  A    between atoms: _527  and  _528
REMARK  210  A    between atoms: _528  and  _529
REMARK  211  A    between atoms: _532  and  _534
REMARK  212  A    between atoms: _534  and  _535
REMARK  213  A    between atoms: _534  and  _537
REMARK  214  A    between atoms: _540  and  _542
REMARK  215  A    between atoms: _542  and  _543
REMARK  216  A    between atoms: _542  and  _545
REMARK  217  A    between atoms: _545  and  _546
REMARK  218  A    between atoms: _550  and  _551
REMARK  219  A    between atoms: _556  and  _558
REMARK  220  A    between atoms: _558  and  _559
REMARK  221  A    between atoms: _558  and  _561
REMARK  222  A    between atoms: _561  and  _562
REMARK  223  A    between atoms: _565  and  _567
REMARK  224  A    between atoms: _567  and  _568
REMARK  225  A    between atoms: _571  and  _573
REMARK  226  A    between atoms: _573  and  _574
REMARK  227  A    between atoms: _573  and  _576
REMARK  228  A    between atoms: _576  and  _577
REMARK  229  A    between atoms: _580  and  _582
REMARK  230  A    between atoms: _582  and  _583
REMARK  231  A    between atoms: _582  and  _585
REMARK  232  A    between atoms: _585  and  _586
REMARK  233  A    between atoms: _588  and  _590
REMARK  234  A    between atoms: _590  and  _591
REMARK  235  A    between atoms: _593  and  _595
REMARK  236  A    between atoms: _595  and  _596
REMARK  237  A    between atoms: _595  and  _598
REMARK  238  A    between atoms: _598  and  _599
REMARK  239  A    between atoms: _602  and  _604
REMARK  240  A    between atoms: _604  and  _605
REMARK  241  A    between atoms: _604  and  _607
REMARK                            x       y       z     vdW  Elec       q    Type
REMARK                         _______ _______ _______ _____ _____    ______ ____
ROOT
ATOM      1  O   HOH     1      -5.891  -7.219   1.971  0.00  0.00    +0.000 OA
ENDROOT
TORSDOF 0
REMARK  Name = ../refined-set-2016/4xu1/4xu1_pocket.pdb
REMARK  241 active torsions:
REMARK  status: ('A' for Active; 'I' for Inactive)
REMARK    1  A    between atoms: _1  and  _3
REMARK    2  A    between atoms: _3  and  _4
REMARK    3  A    between atoms: _3  and  _6
REMARK    4  A    between atoms: _6  and  _7
REMARK    5  A    between atoms: _10  and  _12
REMARK    6  A    between atoms: _12  and  _13
REMARK    7  A    between atoms: _15  and  _17
REMARK    8  A    between atoms: _17  and  _18
REMARK    9  A    between atoms: _17  and  _20
REMARK   10  A    between atoms: _20  and  _21
REMARK   11  A    between atoms: _23  and  _25
REMARK   12  A    between atoms: _25  and  _26
REMARK   13  A    between atoms: _25  and  _28
REMARK   14  A    between atoms: _28  and  _29
REMARK   15  A    between atoms: _32  and  _34
REMARK   16  A    between atoms: _34  and  _35
REMARK   17  A    between atoms: _34  and  _37
REMARK   18  A    between atoms: _37  and  _38
REMARK   19  A    between atoms: _43  and  _45
REMARK   20  A    between atoms: _45  and  _46
REMARK   21  A    between atoms: _49  and  _51
REMARK   22  A    between atoms: _51  and  _52
REMARK   23  A    between atoms: _51  and  _54
REMARK   24  A    between atoms: _54  and  _55
REMARK   25  A    between atoms: _58  and  _60
REMARK   26  A    between atoms: _60  and  _61
REMARK   27  A    between atoms: _60  and  _63
REMARK   28  A    between atoms: _63  and  _64
REMARK   29  A    between atoms: _67  and  _69
REMARK   30  A    between atoms: _69  and  _70
REMARK   31  A    between atoms: _69  and  _72
REMARK   32  A    between atoms: _72  and  _73
REMARK   33  A    between atoms: _76  and  _78
REMARK   34  A    between atoms: _78  and  _79
REMARK   35  A    between atoms: _78  and  _81
REMARK   36  A    between atoms: _81  and  _82
REMARK   37  A    between atoms: _85  and  _87
REMARK   38  A    between atoms: _87  and  _88
REMARK   39  A    between atoms: _91  and  _93
REMARK   40  A    between atoms: _93  and  _94
REMARK   41  A    between atoms: _93  and  _96
REMARK   42  A    between atoms: _96  and  _97
REMARK   43  A    between atoms: _97  and  _98
REMARK   44  A    between atoms: _103  and  _105
REMARK   45  A    between atoms: _105  and  _106
REMARK   46  A    between atoms: _105  and  _108
REMARK   47  A    between atoms: _108  and  _109
REMARK   48  A    between atoms: _112  and  _114
REMARK   49  A    between atoms: _114  and  _115
REMARK   50  A    between atoms: _118  and  _120
REMARK   51  A    between atoms: _120  and  _121
REMARK   52  A    between atoms: _123  and  _125
REMARK   53  A    between atoms: _125  and  _126
REMARK   54  A    between atoms: _125  and  _128
REMARK   55  A    between atoms: _128  and  _129
REMARK   56  A    between atoms: _129  and  _130
REMARK   57  A    between atoms: _130  and  _131
REMARK   58  A    between atoms: _140  and  _142
REMARK   59  A    between atoms: _142  and  _143
REMARK   60  A    between atoms: _145  and  _147
REMARK   61  A    between atoms: _147  and  _148
REMARK   62  A    between atoms: _147  and  _150
REMARK   63  A    between atoms: _150  and  _151
REMARK   64  A    between atoms: _151  and  _152
REMARK   65  A    between atoms: _152  and  _153
REMARK   66  A    between atoms: _162  and  _164
REMARK   67  A    between atoms: _164  and  _165
REMARK   68  A    between atoms: _164  and  _167
REMARK   69  A    between atoms: _167  and  _168
REMARK   70  A    between atoms: _173  and  _175
REMARK   71  A    between atoms: _175  and  _176
REMARK   72  A    between atoms: _178  and  _180
REMARK   73  A    between atoms: _180  and  _181
REMARK   74  A    between atoms: _180  and  _183
REMARK   75  A    between atoms: _183  and  _184
REMARK   76  A    between atoms: _184  and  _185
REMARK   77  A    between atoms: _185  and  _186
REMARK   78  A    between atoms: _195  and  _197
REMARK   79  A    between atoms: _197  and  _198
REMARK   80  A    between atoms: _200  and  _202
REMARK   81  A    between atoms: _202  and  _203
REMARK   82  A    between atoms: _202  and  _205
REMARK   83  A    between atoms: _205  and  _206
REMARK   84  A    between atoms: _216  and  _218
REMARK   85  A    between atoms: _218  and  _219
REMARK   86  A    between atoms: _222  and  _224
REMARK   87  A    between atoms: _224  and  _225
REMARK   88  A    between atoms: _228  and  _230
REMARK   89  A    between atoms: _230  and  _231
REMARK   90  A    between atoms: _230  and  _233
REMARK   91  A    between atoms: _233  and  _234
REMARK   92  A    between atoms: _237  and  _239
REMARK   93  A    between atoms: _239  and  _240
REMARK   94  A    between atoms: _243  and  _245
REMARK   95  A    between atoms: _245  and  _246
REMARK   96  A    between atoms: _245  and  _248
REMARK   97  A    between atoms: _248  and  _249
REMARK   98  A    between atoms: _249  and  _250
REMARK   99  A    between atoms: _255  and  _257
REMARK  100  A    between atoms: _257  and  _258
REMARK  101  A    between atoms: _257  and  _260
REMARK  102  A    between atoms: _260  and  _261
REMARK  103  A    between atoms: _264  and  _266
REMARK  104  A    between atoms: _266  and  _267
REMARK  105  A    between atoms: _266  and  _269
REMARK  106  A    between atoms: _269  and  _270
REMARK  107  A    between atoms: _273  and  _275
REMARK  108  A    between atoms: _275  and  _276
REMARK  109  A    between atoms: _275  and  _278
REMARK  110  A    between atoms: _278  and  _279
REMARK  111  A    between atoms: _282  and  _284
REMARK  112  A    between atoms: _284  and  _285
REMARK  113  A    between atoms: _284  and  _287
REMARK  114  A    between atoms: _287  and  _288
REMARK  115  A    between atoms: _290  and  _292
REMARK  116  A    between atoms: _292  and  _293
REMARK  117  A    between atoms: _292  and  _295
REMARK  118  A    between atoms: _298  and  _300
REMARK  119  A    between atoms: _300  and  _301
REMARK  120  A    between atoms: _300  and  _303
REMARK  121  A    between atoms: _303  and  _304
REMARK  122  A    between atoms: _304  and  _305
REMARK  123  A    between atoms: _305  and  _306
REMARK  124  A    between atoms: _306  and  _307
REMARK  125  A    between atoms: _311  and  _313
REMARK  126  A    between atoms: _313  and  _314
REMARK  127  A    between atoms: _313  and  _316
REMARK  128  A    between atoms: _316  and  _317
REMARK  129  A    between atoms: _328  and  _329
REMARK  130  A    between atoms: _334  and  _336
REMARK  131  A    between atoms: _336  and  _337
REMARK  132  A    between atoms: _336  and  _339
REMARK  133  A    between atoms: _339  and  _340
REMARK  134  A    between atoms: _345  and  _347
REMARK  135  A    between atoms: _347  and  _348
REMARK  136  A    between atoms: _347  and  _350
REMARK  137  A    between atoms: _350  and  _351
REMARK  138  A    between atoms: _354  and  _356
REMARK  139  A    between atoms: _356  and  _357
REMARK  140  A    between atoms: _356  and  _359
REMARK  141  A    between atoms: _362  and  _364
REMARK  142  A    between atoms: _364  and  _365
REMARK  143  A    between atoms: _367  and  _369
REMARK  144  A    between atoms: _369  and  _370
REMARK  145  A    between atoms: _369  and  _372
REMARK  146  A    between atoms: _372  and  _373
REMARK  147  A    between atoms: _373  and  _374
REMARK  148  A    between atoms: _374  and  _375
REMARK  149  A    between atoms: _375  and  _376
REMARK  150  A    between atoms: _380  and  _382
REMARK  151  A    between atoms: _382  and  _383
REMARK  152  A    between atoms: _382  and  _385
REMARK  153  A    between atoms: _385  and  _386
REMARK  154  A    between atoms: _389  and  _391
REMARK  155  A    between atoms: _391  and  _392
REMARK  156  A    between atoms: _395  and  _397
REMARK  157  A    between atoms: _397  and  _398
REMARK  158  A    between atoms: _400  and  _402
REMARK  159  A    between atoms: _402  and  _403
REMARK  160  A    between atoms: _402  and  _405
REMARK  161  A    between atoms: _405  and  _406
REMARK  162  A    between atoms: _409  and  _411
REMARK  163  A    between atoms: _411  and  _412
REMARK  164  A    between atoms: _411  and  _414
REMARK  165  A    between atoms: _414  and  _415
REMARK  166  A    between atoms: _418  and  _420
REMARK  167  A    between atoms: _420  and  _421
REMARK  168  A    between atoms: _424  and  _426
REMARK  169  A    between atoms: _426  and  _427
REMARK  170  A    between atoms: _426  and  _429
REMARK  171  A    between atoms: _429  and  _430
REMARK  172  A    between atoms: _430  and  _431
REMARK  173  A    between atoms: _434  and  _436
REMARK  174  A    between atoms: _436  and  _437
REMARK  175  A    between atoms: _436  and  _439
REMARK  176  A    between atoms: _442  and  _444
REMARK  177  A    between atoms: _444  and  _445
REMARK  178  A    between atoms: _444  and  _447
REMARK  179  A    between atoms: _447  and  _448
REMARK  180  A    between atoms: _451  and  _453
REMARK  181  A    between atoms: _453  and  _454
REMARK  182  A    between atoms: _456  and  _458
REMARK  183  A    between atoms: _458  and  _459
REMARK  184  A    between atoms: _458  and  _461
REMARK  185  A    between atoms: _464  and  _466
REMARK  186  A    between atoms: _466  and  _467
REMARK  187  A    between atoms: _469  and  _471
REMARK  188  A    between atoms: _471  and  _472
REMARK  189  A    between atoms: _471  and  _474
REMARK  190  A    between atoms: _474  and  _475
REMARK  191  A    between atoms: _478  and  _480
REMARK  192  A    between atoms: _480  and  _481
REMARK  193  A    between atoms: _480  and  _483
REMARK  194  A    between atoms: _483  and  _484
REMARK  195  A    between atoms: _489  and  _491
REMARK  196  A    between atoms: _491  and  _492
REMARK  197  A    between atoms: _491  and  _494
REMARK  198  A    between atoms: _497  and  _499
REMARK  199  A    between atoms: _499  and  _500
REMARK  200  A    between atoms: _499  and  _502
REMARK  201  A    between atoms: _502  and  _503
REMARK  202  A    between atoms: _503  and  _504
REMARK  203  A    between atoms: _509  and  _511
REMARK  204  A    between atoms: _511  and  _512
REMARK  205  A    between atoms: _516  and  _517
REMARK  206  A    between atoms: _522  and  _524
REMARK  207  A    between atoms: _524  and  _525
REMARK  208  A    between atoms: _524  and  _527
REMARK  209  A    between atoms: _527  and  _528
REMARK  210  A    between atoms: _528  and  _529
REMARK  211  A    between atoms: _532  and  _534
REMARK  212  A    between atoms: _534  and  _535
REMARK  213  A    between atoms: _534  and  _537
REMARK  214  A    between atoms: _540  and  _542
REMARK  215  A    between atoms: _542  and  _543
REMARK  216  A    between atoms: _542  and  _545
REMARK  217  A    between atoms: _545  and  _546
REMARK  218  A    between atoms: _550  and  _551
REMARK  219  A    between atoms: _556  and  _558
REMARK  220  A    between atoms: _558  and  _559
REMARK  221  A    between atoms: _558  and  _561
REMARK  222  A    between atoms: _561  and  _562
REMARK  223  A    between atoms: _565  and  _567
REMARK  224  A    between atoms: _567  and  _568
REMARK  225  A    between atoms: _571  and  _573
REMARK  226  A    between atoms: _573  and  _574
REMARK  227  A    between atoms: _573  and  _576
REMARK  228  A    between atoms: _576  and  _577
REMARK  229  A    between atoms: _580  and  _582
REMARK  230  A    between atoms: _582  and  _583
REMARK  231  A    between atoms: _582  and  _585
REMARK  232  A    between atoms: _585  and  _586
REMARK  233  A    between atoms: _588  and  _590
REMARK  234  A    between atoms: _590  and  _591
REMARK  235  A    between atoms: _593  and  _595
REMARK  236  A    between atoms: _595  and  _596
REMARK  237  A    between atoms: _595  and  _598
REMARK  238  A    between atoms: _598  and  _599
REMARK  239  A    between atoms: _602  and  _604
REMARK  240  A    between atoms: _604  and  _605
REMARK  241  A    between atoms: _604  and  _607
REMARK                            x       y       z     vdW  Elec       q    Type
REMARK                         _______ _______ _______ _____ _____    ______ ____
ROOT
ATOM      1  O   HOH     1       3.091  -2.705  13.709  0.00  0.00    +0.000 OA
ENDROOT
TORSDOF 0
REMARK  Name = ../refined-set-2016/4xu1/4xu1_pocket.pdb
REMARK  241 active torsions:
REMARK  status: ('A' for Active; 'I' for Inactive)
REMARK    1  A    between atoms: _1  and  _3
REMARK    2  A    between atoms: _3  and  _4
REMARK    3  A    between atoms: _3  and  _6
REMARK    4  A    between atoms: _6  and  _7
REMARK    5  A    between atoms: _10  and  _12
REMARK    6  A    between atoms: _12  and  _13
REMARK    7  A    between atoms: _15  and  _17
REMARK    8  A    between atoms: _17  and  _18
REMARK    9  A    between atoms: _17  and  _20
REMARK   10  A    between atoms: _20  and  _21
REMARK   11  A    between atoms: _23  and  _25
REMARK   12  A    between atoms: _25  and  _26
REMARK   13  A    between atoms: _25  and  _28
REMARK   14  A    between atoms: _28  and  _29
REMARK   15  A    between atoms: _32  and  _34
REMARK   16  A    between atoms: _34  and  _35
REMARK   17  A    between atoms: _34  and  _37
REMARK   18  A    between atoms: _37  and  _38
REMARK   19  A    between atoms: _43  and  _45
REMARK   20  A    between atoms: _45  and  _46
REMARK   21  A    between atoms: _49  and  _51
REMARK   22  A    between atoms: _51  and  _52
REMARK   23  A    between atoms: _51  and  _54
REMARK   24  A    between atoms: _54  and  _55
REMARK   25  A    between atoms: _58  and  _60
REMARK   26  A    between atoms: _60  and  _61
REMARK   27  A    between atoms: _60  and  _63
REMARK   28  A    between atoms: _63  and  _64
REMARK   29  A    between atoms: _67  and  _69
REMARK   30  A    between atoms: _69  and  _70
REMARK   31  A    between atoms: _69  and  _72
REMARK   32  A    between atoms: _72  and  _73
REMARK   33  A    between atoms: _76  and  _78
REMARK   34  A    between atoms: _78  and  _79
REMARK   35  A    between atoms: _78  and  _81
REMARK   36  A    between atoms: _81  and  _82
REMARK   37  A    between atoms: _85  and  _87
REMARK   38  A    between atoms: _87  and  _88
REMARK   39  A    between atoms: _91  and  _93
REMARK   40  A    between atoms: _93  and  _94
REMARK   41  A    between atoms: _93  and  _96
REMARK   42  A    between atoms: _96  and  _97
REMARK   43  A    between atoms: _97  and  _98
REMARK   44  A    between atoms: _103  and  _105
REMARK   45  A    between atoms: _105  and  _106
REMARK   46  A    between atoms: _105  and  _108
REMARK   47  A    between atoms: _108  and  _109
REMARK   48  A    between atoms: _112  and  _114
REMARK   49  A    between atoms: _114  and  _115
REMARK   50  A    between atoms: _118  and  _120
REMARK   51  A    between atoms: _120  and  _121
REMARK   52  A    between atoms: _123  and  _125
REMARK   53  A    between atoms: _125  and  _126
REMARK   54  A    between atoms: _125  and  _128
REMARK   55  A    between atoms: _128  and  _129
REMARK   56  A    between atoms: _129  and  _130
REMARK   57  A    between atoms: _130  and  _131
REMARK   58  A    between atoms: _140  and  _142
REMARK   59  A    between atoms: _142  and  _143
REMARK   60  A    between atoms: _145  and  _147
REMARK   61  A    between atoms: _147  and  _148
REMARK   62  A    between atoms: _147  and  _150
REMARK   63  A    between atoms: _150  and  _151
REMARK   64  A    between atoms: _151  and  _152
REMARK   65  A    between atoms: _152  and  _153
REMARK   66  A    between atoms: _162  and  _164
REMARK   67  A    between atoms: _164  and  _165
REMARK   68  A    between atoms: _164  and  _167
REMARK   69  A    between atoms: _167  and  _168
REMARK   70  A    between atoms: _173  and  _175
REMARK   71  A    between atoms: _175  and  _176
REMARK   72  A    between atoms: _178  and  _180
REMARK   73  A    between atoms: _180  and  _181
REMARK   74  A    between atoms: _180  and  _183
REMARK   75  A    between atoms: _183  and  _184
REMARK   76  A    between atoms: _184  and  _185
REMARK   77  A    between atoms: _185  and  _186
REMARK   78  A    between atoms: _195  and  _197
REMARK   79  A    between atoms: _197  and  _198
REMARK   80  A    between atoms: _200  and  _202
REMARK   81  A    between atoms: _202  and  _203
REMARK   82  A    between atoms: _202  and  _205
REMARK   83  A    between atoms: _205  and  _206
REMARK   84  A    between atoms: _216  and  _218
REMARK   85  A    between atoms: _218  and  _219
REMARK   86  A    between atoms: _222  and  _224
REMARK   87  A    between atoms: _224  and  _225
REMARK   88  A    between atoms: _228  and  _230
REMARK   89  A    between atoms: _230  and  _231
REMARK   90  A    between atoms: _230  and  _233
REMARK   91  A    between atoms: _233  and  _234
REMARK   92  A    between atoms: _237  and  _239
REMARK   93  A    between atoms: _239  and  _240
REMARK   94  A    between atoms: _243  and  _245
REMARK   95  A    between atoms: _245  and  _246
REMARK   96  A    between atoms: _245  and  _248
REMARK   97  A    between atoms: _248  and  _249
REMARK   98  A    between atoms: _249  and  _250
REMARK   99  A    between atoms: _255  and  _257
REMARK  100  A    between atoms: _257  and  _258
REMARK  101  A    between atoms: _257  and  _260
REMARK  102  A    between atoms: _260  and  _261
REMARK  103  A    between atoms: _264  and  _266
REMARK  104  A    between atoms: _266  and  _267
REMARK  105  A    between atoms: _266  and  _269
REMARK  106  A    between atoms: _269  and  _270
REMARK  107  A    between atoms: _273  and  _275
REMARK  108  A    between atoms: _275  and  _276
REMARK  109  A    between atoms: _275  and  _278
REMARK  110  A    between atoms: _278  and  _279
REMARK  111  A    between atoms: _282  and  _284
REMARK  112  A    between atoms: _284  and  _285
REMARK  113  A    between atoms: _284  and  _287
REMARK  114  A    between atoms: _287  and  _288
REMARK  115  A    between atoms: _290  and  _292
REMARK  116  A    between atoms: _292  and  _293
REMARK  117  A    between atoms: _292  and  _295
REMARK  118  A    between atoms: _298  and  _300
REMARK  119  A    between atoms: _300  and  _301
REMARK  120  A    between atoms: _300  and  _303
REMARK  121  A    between atoms: _303  and  _304
REMARK  122  A    between atoms: _304  and  _305
REMARK  123  A    between atoms: _305  and  _306
REMARK  124  A    between atoms: _306  and  _307
REMARK  125  A    between atoms: _311  and  _313
REMARK  126  A    between atoms: _313  and  _314
REMARK  127  A    between atoms: _313  and  _316
REMARK  128  A    between atoms: _316  and  _317
REMARK  129  A    between atoms: _328  and  _329
REMARK  130  A    between atoms: _334  and  _336
REMARK  131  A    between atoms: _336  and  _337
REMARK  132  A    between atoms: _336  and  _339
REMARK  133  A    between atoms: _339  and  _340
REMARK  134  A    between atoms: _345  and  _347
REMARK  135  A    between atoms: _347  and  _348
REMARK  136  A    between atoms: _347  and  _350
REMARK  137  A    between atoms: _350  and  _351
REMARK  138  A    between atoms: _354  and  _356
REMARK  139  A    between atoms: _356  and  _357
REMARK  140  A    between atoms: _356  and  _359
REMARK  141  A    between atoms: _362  and  _364
REMARK  142  A    between atoms: _364  and  _365
REMARK  143  A    between atoms: _367  and  _369
REMARK  144  A    between atoms: _369  and  _370
REMARK  145  A    between atoms: _369  and  _372
REMARK  146  A    between atoms: _372  and  _373
REMARK  147  A    between atoms: _373  and  _374
REMARK  148  A    between atoms: _374  and  _375
REMARK  149  A    between atoms: _375  and  _376
REMARK  150  A    between atoms: _380  and  _382
REMARK  151  A    between atoms: _382  and  _383
REMARK  152  A    between atoms: _382  and  _385
REMARK  153  A    between atoms: _385  and  _386
REMARK  154  A    between atoms: _389  and  _391
REMARK  155  A    between atoms: _391  and  _392
REMARK  156  A    between atoms: _395  and  _397
REMARK  157  A    between atoms: _397  and  _398
REMARK  158  A    between atoms: _400  and  _402
REMARK  159  A    between atoms: _402  and  _403
REMARK  160  A    between atoms: _402  and  _405
REMARK  161  A    between atoms: _405  and  _406
REMARK  162  A    between atoms: _409  and  _411
REMARK  163  A    between atoms: _411  and  _412
REMARK  164  A    between atoms: _411  and  _414
REMARK  165  A    between atoms: _414  and  _415
REMARK  166  A    between atoms: _418  and  _420
REMARK  167  A    between atoms: _420  and  _421
REMARK  168  A    between atoms: _424  and  _426
REMARK  169  A    between atoms: _426  and  _427
REMARK  170  A    between atoms: _426  and  _429
REMARK  171  A    between atoms: _429  and  _430
REMARK  172  A    between atoms: _430  and  _431
REMARK  173  A    between atoms: _434  and  _436
REMARK  174  A    between atoms: _436  and  _437
REMARK  175  A    between atoms: _436  and  _439
REMARK  176  A    between atoms: _442  and  _444
REMARK  177  A    between atoms: _444  and  _445
REMARK  178  A    between atoms: _444  and  _447
REMARK  179  A    between atoms: _447  and  _448
REMARK  180  A    between atoms: _451  and  _453
REMARK  181  A    between atoms: _453  and  _454
REMARK  182  A    between atoms: _456  and  _458
REMARK  183  A    between atoms: _458  and  _459
REMARK  184  A    between atoms: _458  and  _461
REMARK  185  A    between atoms: _464  and  _466
REMARK  186  A    between atoms: _466  and  _467
REMARK  187  A    between atoms: _469  and  _471
REMARK  188  A    between atoms: _471  and  _472
REMARK  189  A    between atoms: _471  and  _474
REMARK  190  A    between atoms: _474  and  _475
REMARK  191  A    between atoms: _478  and  _480
REMARK  192  A    between atoms: _480  and  _481
REMARK  193  A    between atoms: _480  and  _483
REMARK  194  A    between atoms: _483  and  _484
REMARK  195  A    between atoms: _489  and  _491
REMARK  196  A    between atoms: _491  and  _492
REMARK  197  A    between atoms: _491  and  _494
REMARK  198  A    between atoms: _497  and  _499
REMARK  199  A    between atoms: _499  and  _500
REMARK  200  A    between atoms: _499  and  _502
REMARK  201  A    between atoms: _502  and  _503
REMARK  202  A    between atoms: _503  and  _504
REMARK  203  A    between atoms: _509  and  _511
REMARK  204  A    between atoms: _511  and  _512
REMARK  205  A    between atoms: _516  and  _517
REMARK  206  A    between atoms: _522  and  _524
REMARK  207  A    between atoms: _524  and  _525
REMARK  208  A    between atoms: _524  and  _527
REMARK  209  A    between atoms: _527  and  _528
REMARK  210  A    between atoms: _528  and  _529
REMARK  211  A    between atoms: _532  and  _534
REMARK  212  A    between atoms: _534  and  _535
REMARK  213  A    between atoms: _534  and  _537
REMARK  214  A    between atoms: _540  and  _542
REMARK  215  A    between atoms: _542  and  _543
REMARK  216  A    between atoms: _542  and  _545
REMARK  217  A    between atoms: _545  and  _546
REMARK  218  A    between atoms: _550  and  _551
REMARK  219  A    between atoms: _556  and  _558
REMARK  220  A    between atoms: _558  and  _559
REMARK  221  A    between atoms: _558  and  _561
REMARK  222  A    between atoms: _561  and  _562
REMARK  223  A    between atoms: _565  and  _567
REMARK  224  A    between atoms: _567  and  _568
REMARK  225  A    between atoms: _571  and  _573
REMARK  226  A    between atoms: _573  and  _574
REMARK  227  A    between atoms: _573  and  _576
REMARK  228  A    between atoms: _576  and  _577
REMARK  229  A    between atoms: _580  and  _582
REMARK  230  A    between atoms: _582  and  _583
REMARK  231  A    between atoms: _582  and  _585
REMARK  232  A    between atoms: _585  and  _586
REMARK  233  A    between atoms: _588  and  _590
REMARK  234  A    between atoms: _590  and  _591
REMARK  235  A    between atoms: _593  and  _595
REMARK  236  A    between atoms: _595  and  _596
REMARK  237  A    between atoms: _595  and  _598
REMARK  238  A    between atoms: _598  and  _599
REMARK  239  A    between atoms: _602  and  _604
REMARK  240  A    between atoms: _604  and  _605
REMARK  241  A    between atoms: _604  and  _607
REMARK                            x       y       z     vdW  Elec       q    Type
REMARK                         _______ _______ _______ _____ _____    ______ ____
ROOT
ATOM      1  O   HOH     1      -9.290  -2.498   1.794  0.00  0.00    +0.000 OA
ENDROOT
TORSDOF 0
REMARK  Name = ../refined-set-2016/4xu1/4xu1_pocket.pdb
REMARK  241 active torsions:
REMARK  status: ('A' for Active; 'I' for Inactive)
REMARK    1  A    between atoms: _1  and  _3
REMARK    2  A    between atoms: _3  and  _4
REMARK    3  A    between atoms: _3  and  _6
REMARK    4  A    between atoms: _6  and  _7
REMARK    5  A    between atoms: _10  and  _12
REMARK    6  A    between atoms: _12  and  _13
REMARK    7  A    between atoms: _15  and  _17
REMARK    8  A    between atoms: _17  and  _18
REMARK    9  A    between atoms: _17  and  _20
REMARK   10  A    between atoms: _20  and  _21
REMARK   11  A    between atoms: _23  and  _25
REMARK   12  A    between atoms: _25  and  _26
REMARK   13  A    between atoms: _25  and  _28
REMARK   14  A    between atoms: _28  and  _29
REMARK   15  A    between atoms: _32  and  _34
REMARK   16  A    between atoms: _34  and  _35
REMARK   17  A    between atoms: _34  and  _37
REMARK   18  A    between atoms: _37  and  _38
REMARK   19  A    between atoms: _43  and  _45
REMARK   20  A    between atoms: _45  and  _46
REMARK   21  A    between atoms: _49  and  _51
REMARK   22  A    between atoms: _51  and  _52
REMARK   23  A    between atoms: _51  and  _54
REMARK   24  A    between atoms: _54  and  _55
REMARK   25  A    between atoms: _58  and  _60
REMARK   26  A    between atoms: _60  and  _61
REMARK   27  A    between atoms: _60  and  _63
REMARK   28  A    between atoms: _63  and  _64
REMARK   29  A    between atoms: _67  and  _69
REMARK   30  A    between atoms: _69  and  _70
REMARK   31  A    between atoms: _69  and  _72
REMARK   32  A    between atoms: _72  and  _73
REMARK   33  A    between atoms: _76  and  _78
REMARK   34  A    between atoms: _78  and  _79
REMARK   35  A    between atoms: _78  and  _81
REMARK   36  A    between atoms: _81  and  _82
REMARK   37  A    between atoms: _85  and  _87
REMARK   38  A    between atoms: _87  and  _88
REMARK   39  A    between atoms: _91  and  _93
REMARK   40  A    between atoms: _93  and  _94
REMARK   41  A    between atoms: _93  and  _96
REMARK   42  A    between atoms: _96  and  _97
REMARK   43  A    between atoms: _97  and  _98
REMARK   44  A    between atoms: _103  and  _105
REMARK   45  A    between atoms: _105  and  _106
REMARK   46  A    between atoms: _105  and  _108
REMARK   47  A    between atoms: _108  and  _109
REMARK   48  A    between atoms: _112  and  _114
REMARK   49  A    between atoms: _114  and  _115
REMARK   50  A    between atoms: _118  and  _120
REMARK   51  A    between atoms: _120  and  _121
REMARK   52  A    between atoms: _123  and  _125
REMARK   53  A    between atoms: _125  and  _126
REMARK   54  A    between atoms: _125  and  _128
REMARK   55  A    between atoms: _128  and  _129
REMARK   56  A    between atoms: _129  and  _130
REMARK   57  A    between atoms: _130  and  _131
REMARK   58  A    between atoms: _140  and  _142
REMARK   59  A    between atoms: _142  and  _143
REMARK   60  A    between atoms: _145  and  _147
REMARK   61  A    between atoms: _147  and  _148
REMARK   62  A    between atoms: _147  and  _150
REMARK   63  A    between atoms: _150  and  _151
REMARK   64  A    between atoms: _151  and  _152
REMARK   65  A    between atoms: _152  and  _153
REMARK   66  A    between atoms: _162  and  _164
REMARK   67  A    between atoms: _164  and  _165
REMARK   68  A    between atoms: _164  and  _167
REMARK   69  A    between atoms: _167  and  _168
REMARK   70  A    between atoms: _173  and  _175
REMARK   71  A    between atoms: _175  and  _176
REMARK   72  A    between atoms: _178  and  _180
REMARK   73  A    between atoms: _180  and  _181
REMARK   74  A    between atoms: _180  and  _183
REMARK   75  A    between atoms: _183  and  _184
REMARK   76  A    between atoms: _184  and  _185
REMARK   77  A    between atoms: _185  and  _186
REMARK   78  A    between atoms: _195  and  _197
REMARK   79  A    between atoms: _197  and  _198
REMARK   80  A    between atoms: _200  and  _202
REMARK   81  A    between atoms: _202  and  _203
REMARK   82  A    between atoms: _202  and  _205
REMARK   83  A    between atoms: _205  and  _206
REMARK   84  A    between atoms: _216  and  _218
REMARK   85  A    between atoms: _218  and  _219
REMARK   86  A    between atoms: _222  and  _224
REMARK   87  A    between atoms: _224  and  _225
REMARK   88  A    between atoms: _228  and  _230
REMARK   89  A    between atoms: _230  and  _231
REMARK   90  A    between atoms: _230  and  _233
REMARK   91  A    between atoms: _233  and  _234
REMARK   92  A    between atoms: _237  and  _239
REMARK   93  A    between atoms: _239  and  _240
REMARK   94  A    between atoms: _243  and  _245
REMARK   95  A    between atoms: _245  and  _246
REMARK   96  A    between atoms: _245  and  _248
REMARK   97  A    between atoms: _248  and  _249
REMARK   98  A    between atoms: _249  and  _250
REMARK   99  A    between atoms: _255  and  _257
REMARK  100  A    between atoms: _257  and  _258
REMARK  101  A    between atoms: _257  and  _260
REMARK  102  A    between atoms: _260  and  _261
REMARK  103  A    between atoms: _264  and  _266
REMARK  104  A    between atoms: _266  and  _267
REMARK  105  A    between atoms: _266  and  _269
REMARK  106  A    between atoms: _269  and  _270
REMARK  107  A    between atoms: _273  and  _275
REMARK  108  A    between atoms: _275  and  _276
REMARK  109  A    between atoms: _275  and  _278
REMARK  110  A    between atoms: _278  and  _279
REMARK  111  A    between atoms: _282  and  _284
REMARK  112  A    between atoms: _284  and  _285
REMARK  113  A    between atoms: _284  and  _287
REMARK  114  A    between atoms: _287  and  _288
REMARK  115  A    between atoms: _290  and  _292
REMARK  116  A    between atoms: _292  and  _293
REMARK  117  A    between atoms: _292  and  _295
REMARK  118  A    between atoms: _298  and  _300
REMARK  119  A    between atoms: _300  and  _301
REMARK  120  A    between atoms: _300  and  _303
REMARK  121  A    between atoms: _303  and  _304
REMARK  122  A    between atoms: _304  and  _305
REMARK  123  A    between atoms: _305  and  _306
REMARK  124  A    between atoms: _306  and  _307
REMARK  125  A    between atoms: _311  and  _313
REMARK  126  A    between atoms: _313  and  _314
REMARK  127  A    between atoms: _313  and  _316
REMARK  128  A    between atoms: _316  and  _317
REMARK  129  A    between atoms: _328  and  _329
REMARK  130  A    between atoms: _334  and  _336
REMARK  131  A    between atoms: _336  and  _337
REMARK  132  A    between atoms: _336  and  _339
REMARK  133  A    between atoms: _339  and  _340
REMARK  134  A    between atoms: _345  and  _347
REMARK  135  A    between atoms: _347  and  _348
REMARK  136  A    between atoms: _347  and  _350
REMARK  137  A    between atoms: _350  and  _351
REMARK  138  A    between atoms: _354  and  _356
REMARK  139  A    between atoms: _356  and  _357
REMARK  140  A    between atoms: _356  and  _359
REMARK  141  A    between atoms: _362  and  _364
REMARK  142  A    between atoms: _364  and  _365
REMARK  143  A    between atoms: _367  and  _369
REMARK  144  A    between atoms: _369  and  _370
REMARK  145  A    between atoms: _369  and  _372
REMARK  146  A    between atoms: _372  and  _373
REMARK  147  A    between atoms: _373  and  _374
REMARK  148  A    between atoms: _374  and  _375
REMARK  149  A    between atoms: _375  and  _376
REMARK  150  A    between atoms: _380  and  _382
REMARK  151  A    between atoms: _382  and  _383
REMARK  152  A    between atoms: _382  and  _385
REMARK  153  A    between atoms: _385  and  _386
REMARK  154  A    between atoms: _389  and  _391
REMARK  155  A    between atoms: _391  and  _392
REMARK  156  A    between atoms: _395  and  _397
REMARK  157  A    between atoms: _397  and  _398
REMARK  158  A    between atoms: _400  and  _402
REMARK  159  A    between atoms: _402  and  _403
REMARK  160  A    between atoms: _402  and  _405
REMARK  161  A    between atoms: _405  and  _406
REMARK  162  A    between atoms: _409  and  _411
REMARK  163  A    between atoms: _411  and  _412
REMARK  164  A    between atoms: _411  and  _414
REMARK  165  A    between atoms: _414  and  _415
REMARK  166  A    between atoms: _418  and  _420
REMARK  167  A    between atoms: _420  and  _421
REMARK  168  A    between atoms: _424  and  _426
REMARK  169  A    between atoms: _426  and  _427
REMARK  170  A    between atoms: _426  and  _429
REMARK  171  A    between atoms: _429  and  _430
REMARK  172  A    between atoms: _430  and  _431
REMARK  173  A    between atoms: _434  and  _436
REMARK  174  A    between atoms: _436  and  _437
REMARK  175  A    between atoms: _436  and  _439
REMARK  176  A    between atoms: _442  and  _444
REMARK  177  A    between atoms: _444  and  _445
REMARK  178  A    between atoms: _444  and  _447
REMARK  179  A    between atoms: _447  and  _448
REMARK  180  A    between atoms: _451  and  _453
REMARK  181  A    between atoms: _453  and  _454
REMARK  182  A    between atoms: _456  and  _458
REMARK  183  A    between atoms: _458  and  _459
REMARK  184  A    between atoms: _458  and  _461
REMARK  185  A    between atoms: _464  and  _466
REMARK  186  A    between atoms: _466  and  _467
REMARK  187  A    between atoms: _469  and  _471
REMARK  188  A    between atoms: _471  and  _472
REMARK  189  A    between atoms: _471  and  _474
REMARK  190  A    between atoms: _474  and  _475
REMARK  191  A    between atoms: _478  and  _480
REMARK  192  A    between atoms: _480  and  _481
REMARK  193  A    between atoms: _480  and  _483
REMARK  194  A    between atoms: _483  and  _484
REMARK  195  A    between atoms: _489  and  _491
REMARK  196  A    between atoms: _491  and  _492
REMARK  197  A    between atoms: _491  and  _494
REMARK  198  A    between atoms: _497  and  _499
REMARK  199  A    between atoms: _499  and  _500
REMARK  200  A    between atoms: _499  and  _502
REMARK  201  A    between atoms: _502  and  _503
REMARK  202  A    between atoms: _503  and  _504
REMARK  203  A    between atoms: _509  and  _511
REMARK  204  A    between atoms: _511  and  _512
REMARK  205  A    between atoms: _516  and  _517
REMARK  206  A    between atoms: _522  and  _524
REMARK  207  A    between atoms: _524  and  _525
REMARK  208  A    between atoms: _524  and  _527
REMARK  209  A    between atoms: _527  and  _528
REMARK  210  A    between atoms: _528  and  _529
REMARK  211  A    between atoms: _532  and  _534
REMARK  212  A    between atoms: _534  and  _535
REMARK  213  A    between atoms: _534  and  _537
REMARK  214  A    between atoms: _540  and  _542
REMARK  215  A    between atoms: _542  and  _543
REMARK  216  A    between atoms: _542  and  _545
REMARK  217  A    between atoms: _545  and  _546
REMARK  218  A    between atoms: _550  and  _551
REMARK  219  A    between atoms: _556  and  _558
REMARK  220  A    between atoms: _558  and  _559
REMARK  221  A    between atoms: _558  and  _561
REMARK  222  A    between atoms: _561  and  _562
REMARK  223  A    between atoms: _565  and  _567
REMARK  224  A    between atoms: _567  and  _568
REMARK  225  A    between atoms: _571  and  _573
REMARK  226  A    between atoms: _573  and  _574
REMARK  227  A    between atoms: _573  and  _576
REMARK  228  A    between atoms: _576  and  _577
REMARK  229  A    between atoms: _580  and  _582
REMARK  230  A    between atoms: _582  and  _583
REMARK  231  A    between atoms: _582  and  _585
REMARK  232  A    between atoms: _585  and  _586
REMARK  233  A    between atoms: _588  and  _590
REMARK  234  A    between atoms: _590  and  _591
REMARK  235  A    between atoms: _593  and  _595
REMARK  236  A    between atoms: _595  and  _596
REMARK  237  A    between atoms: _595  and  _598
REMARK  238  A    between atoms: _598  and  _599
REMARK  239  A    between atoms: _602  and  _604
REMARK  240  A    between atoms: _604  and  _605
REMARK  241  A    between atoms: _604  and  _607
REMARK                            x       y       z     vdW  Elec       q    Type
REMARK                         _______ _______ _______ _____ _____    ______ ____
ROOT
ATOM      1  O   HOH     1       4.275  -9.086   8.122  0.00  0.00    +0.000 OA
ENDROOT
TORSDOF 0
REMARK  Name = ../refined-set-2016/4xu1/4xu1_pocket.pdb
REMARK  241 active torsions:
REMARK  status: ('A' for Active; 'I' for Inactive)
REMARK    1  A    between atoms: _1  and  _3
REMARK    2  A    between atoms: _3  and  _4
REMARK    3  A    between atoms: _3  and  _6
REMARK    4  A    between atoms: _6  and  _7
REMARK    5  A    between atoms: _10  and  _12
REMARK    6  A    between atoms: _12  and  _13
REMARK    7  A    between atoms: _15  and  _17
REMARK    8  A    between atoms: _17  and  _18
REMARK    9  A    between atoms: _17  and  _20
REMARK   10  A    between atoms: _20  and  _21
REMARK   11  A    between atoms: _23  and  _25
REMARK   12  A    between atoms: _25  and  _26
REMARK   13  A    between atoms: _25  and  _28
REMARK   14  A    between atoms: _28  and  _29
REMARK   15  A    between atoms: _32  and  _34
REMARK   16  A    between atoms: _34  and  _35
REMARK   17  A    between atoms: _34  and  _37
REMARK   18  A    between atoms: _37  and  _38
REMARK   19  A    between atoms: _43  and  _45
REMARK   20  A    between atoms: _45  and  _46
REMARK   21  A    between atoms: _49  and  _51
REMARK   22  A    between atoms: _51  and  _52
REMARK   23  A    between atoms: _51  and  _54
REMARK   24  A    between atoms: _54  and  _55
REMARK   25  A    between atoms: _58  and  _60
REMARK   26  A    between atoms: _60  and  _61
REMARK   27  A    between atoms: _60  and  _63
REMARK   28  A    between atoms: _63  and  _64
REMARK   29  A    between atoms: _67  and  _69
REMARK   30  A    between atoms: _69  and  _70
REMARK   31  A    between atoms: _69  and  _72
REMARK   32  A    between atoms: _72  and  _73
REMARK   33  A    between atoms: _76  and  _78
REMARK   34  A    between atoms: _78  and  _79
REMARK   35  A    between atoms: _78  and  _81
REMARK   36  A    between atoms: _81  and  _82
REMARK   37  A    between atoms: _85  and  _87
REMARK   38  A    between atoms: _87  and  _88
REMARK   39  A    between atoms: _91  and  _93
REMARK   40  A    between atoms: _93  and  _94
REMARK   41  A    between atoms: _93  and  _96
REMARK   42  A    between atoms: _96  and  _97
REMARK   43  A    between atoms: _97  and  _98
REMARK   44  A    between atoms: _103  and  _105
REMARK   45  A    between atoms: _105  and  _106
REMARK   46  A    between atoms: _105  and  _108
REMARK   47  A    between atoms: _108  and  _109
REMARK   48  A    between atoms: _112  and  _114
REMARK   49  A    between atoms: _114  and  _115
REMARK   50  A    between atoms: _118  and  _120
REMARK   51  A    between atoms: _120  and  _121
REMARK   52  A    between atoms: _123  and  _125
REMARK   53  A    between atoms: _125  and  _126
REMARK   54  A    between atoms: _125  and  _128
REMARK   55  A    between atoms: _128  and  _129
REMARK   56  A    between atoms: _129  and  _130
REMARK   57  A    between atoms: _130  and  _131
REMARK   58  A    between atoms: _140  and  _142
REMARK   59  A    between atoms: _142  and  _143
REMARK   60  A    between atoms: _145  and  _147
REMARK   61  A    between atoms: _147  and  _148
REMARK   62  A    between atoms: _147  and  _150
REMARK   63  A    between atoms: _150  and  _151
REMARK   64  A    between atoms: _151  and  _152
REMARK   65  A    between atoms: _152  and  _153
REMARK   66  A    between atoms: _162  and  _164
REMARK   67  A    between atoms: _164  and  _165
REMARK   68  A    between atoms: _164  and  _167
REMARK   69  A    between atoms: _167  and  _168
REMARK   70  A    between atoms: _173  and  _175
REMARK   71  A    between atoms: _175  and  _176
REMARK   72  A    between atoms: _178  and  _180
REMARK   73  A    between atoms: _180  and  _181
REMARK   74  A    between atoms: _180  and  _183
REMARK   75  A    between atoms: _183  and  _184
REMARK   76  A    between atoms: _184  and  _185
REMARK   77  A    between atoms: _185  and  _186
REMARK   78  A    between atoms: _195  and  _197
REMARK   79  A    between atoms: _197  and  _198
REMARK   80  A    between atoms: _200  and  _202
REMARK   81  A    between atoms: _202  and  _203
REMARK   82  A    between atoms: _202  and  _205
REMARK   83  A    between atoms: _205  and  _206
REMARK   84  A    between atoms: _216  and  _218
REMARK   85  A    between atoms: _218  and  _219
REMARK   86  A    between atoms: _222  and  _224
REMARK   87  A    between atoms: _224  and  _225
REMARK   88  A    between atoms: _228  and  _230
REMARK   89  A    between atoms: _230  and  _231
REMARK   90  A    between atoms: _230  and  _233
REMARK   91  A    between atoms: _233  and  _234
REMARK   92  A    between atoms: _237  and  _239
REMARK   93  A    between atoms: _239  and  _240
REMARK   94  A    between atoms: _243  and  _245
REMARK   95  A    between atoms: _245  and  _246
REMARK   96  A    between atoms: _245  and  _248
REMARK   97  A    between atoms: _248  and  _249
REMARK   98  A    between atoms: _249  and  _250
REMARK   99  A    between atoms: _255  and  _257
REMARK  100  A    between atoms: _257  and  _258
REMARK  101  A    between atoms: _257  and  _260
REMARK  102  A    between atoms: _260  and  _261
REMARK  103  A    between atoms: _264  and  _266
REMARK  104  A    between atoms: _266  and  _267
REMARK  105  A    between atoms: _266  and  _269
REMARK  106  A    between atoms: _269  and  _270
REMARK  107  A    between atoms: _273  and  _275
REMARK  108  A    between atoms: _275  and  _276
REMARK  109  A    between atoms: _275  and  _278
REMARK  110  A    between atoms: _278  and  _279
REMARK  111  A    between atoms: _282  and  _284
REMARK  112  A    between atoms: _284  and  _285
REMARK  113  A    between atoms: _284  and  _287
REMARK  114  A    between atoms: _287  and  _288
REMARK  115  A    between atoms: _290  and  _292
REMARK  116  A    between atoms: _292  and  _293
REMARK  117  A    between atoms: _292  and  _295
REMARK  118  A    between atoms: _298  and  _300
REMARK  119  A    between atoms: _300  and  _301
REMARK  120  A    between atoms: _300  and  _303
REMARK  121  A    between atoms: _303  and  _304
REMARK  122  A    between atoms: _304  and  _305
REMARK  123  A    between atoms: _305  and  _306
REMARK  124  A    between atoms: _306  and  _307
REMARK  125  A    between atoms: _311  and  _313
REMARK  126  A    between atoms: _313  and  _314
REMARK  127  A    between atoms: _313  and  _316
REMARK  128  A    between atoms: _316  and  _317
REMARK  129  A    between atoms: _328  and  _329
REMARK  130  A    between atoms: _334  and  _336
REMARK  131  A    between atoms: _336  and  _337
REMARK  132  A    between atoms: _336  and  _339
REMARK  133  A    between atoms: _339  and  _340
REMARK  134  A    between atoms: _345  and  _347
REMARK  135  A    between atoms: _347  and  _348
REMARK  136  A    between atoms: _347  and  _350
REMARK  137  A    between atoms: _350  and  _351
REMARK  138  A    between atoms: _354  and  _356
REMARK  139  A    between atoms: _356  and  _357
REMARK  140  A    between atoms: _356  and  _359
REMARK  141  A    between atoms: _362  and  _364
REMARK  142  A    between atoms: _364  and  _365
REMARK  143  A    between atoms: _367  and  _369
REMARK  144  A    between atoms: _369  and  _370
REMARK  145  A    between atoms: _369  and  _372
REMARK  146  A    between atoms: _372  and  _373
REMARK  147  A    between atoms: _373  and  _374
REMARK  148  A    between atoms: _374  and  _375
REMARK  149  A    between atoms: _375  and  _376
REMARK  150  A    between atoms: _380  and  _382
REMARK  151  A    between atoms: _382  and  _383
REMARK  152  A    between atoms: _382  and  _385
REMARK  153  A    between atoms: _385  and  _386
REMARK  154  A    between atoms: _389  and  _391
REMARK  155  A    between atoms: _391  and  _392
REMARK  156  A    between atoms: _395  and  _397
REMARK  157  A    between atoms: _397  and  _398
REMARK  158  A    between atoms: _400  and  _402
REMARK  159  A    between atoms: _402  and  _403
REMARK  160  A    between atoms: _402  and  _405
REMARK  161  A    between atoms: _405  and  _406
REMARK  162  A    between atoms: _409  and  _411
REMARK  163  A    between atoms: _411  and  _412
REMARK  164  A    between atoms: _411  and  _414
REMARK  165  A    between atoms: _414  and  _415
REMARK  166  A    between atoms: _418  and  _420
REMARK  167  A    between atoms: _420  and  _421
REMARK  168  A    between atoms: _424  and  _426
REMARK  169  A    between atoms: _426  and  _427
REMARK  170  A    between atoms: _426  and  _429
REMARK  171  A    between atoms: _429  and  _430
REMARK  172  A    between atoms: _430  and  _431
REMARK  173  A    between atoms: _434  and  _436
REMARK  174  A    between atoms: _436  and  _437
REMARK  175  A    between atoms: _436  and  _439
REMARK  176  A    between atoms: _442  and  _444
REMARK  177  A    between atoms: _444  and  _445
REMARK  178  A    between atoms: _444  and  _447
REMARK  179  A    between atoms: _447  and  _448
REMARK  180  A    between atoms: _451  and  _453
REMARK  181  A    between atoms: _453  and  _454
REMARK  182  A    between atoms: _456  and  _458
REMARK  183  A    between atoms: _458  and  _459
REMARK  184  A    between atoms: _458  and  _461
REMARK  185  A    between atoms: _464  and  _466
REMARK  186  A    between atoms: _466  and  _467
REMARK  187  A    between atoms: _469  and  _471
REMARK  188  A    between atoms: _471  and  _472
REMARK  189  A    between atoms: _471  and  _474
REMARK  190  A    between atoms: _474  and  _475
REMARK  191  A    between atoms: _478  and  _480
REMARK  192  A    between atoms: _480  and  _481
REMARK  193  A    between atoms: _480  and  _483
REMARK  194  A    between atoms: _483  and  _484
REMARK  195  A    between atoms: _489  and  _491
REMARK  196  A    between atoms: _491  and  _492
REMARK  197  A    between atoms: _491  and  _494
REMARK  198  A    between atoms: _497  and  _499
REMARK  199  A    between atoms: _499  and  _500
REMARK  200  A    between atoms: _499  and  _502
REMARK  201  A    between atoms: _502  and  _503
REMARK  202  A    between atoms: _503  and  _504
REMARK  203  A    between atoms: _509  and  _511
REMARK  204  A    between atoms: _511  and  _512
REMARK  205  A    between atoms: _516  and  _517
REMARK  206  A    between atoms: _522  and  _524
REMARK  207  A    between atoms: _524  and  _525
REMARK  208  A    between atoms: _524  and  _527
REMARK  209  A    between atoms: _527  and  _528
REMARK  210  A    between atoms: _528  and  _529
REMARK  211  A    between atoms: _532  and  _534
REMARK  212  A    between atoms: _534  and  _535
REMARK  213  A    between atoms: _534  and  _537
REMARK  214  A    between atoms: _540  and  _542
REMARK  215  A    between atoms: _542  and  _543
REMARK  216  A    between atoms: _542  and  _545
REMARK  217  A    between atoms: _545  and  _546
REMARK  218  A    between atoms: _550  and  _551
REMARK  219  A    between atoms: _556  and  _558
REMARK  220  A    between atoms: _558  and  _559
REMARK  221  A    between atoms: _558  and  _561
REMARK  222  A    between atoms: _561  and  _562
REMARK  223  A    between atoms: _565  and  _567
REMARK  224  A    between atoms: _567  and  _568
REMARK  225  A    between atoms: _571  and  _573
REMARK  226  A    between atoms: _573  and  _574
REMARK  227  A    between atoms: _573  and  _576
REMARK  228  A    between atoms: _576  and  _577
REMARK  229  A    between atoms: _580  and  _582
REMARK  230  A    between atoms: _582  and  _583
REMARK  231  A    between atoms: _582  and  _585
REMARK  232  A    between atoms: _585  and  _586
REMARK  233  A    between atoms: _588  and  _590
REMARK  234  A    between atoms: _590  and  _591
REMARK  235  A    between atoms: _593  and  _595
REMARK  236  A    between atoms: _595  and  _596
REMARK  237  A    between atoms: _595  and  _598
REMARK  238  A    between atoms: _598  and  _599
REMARK  239  A    between atoms: _602  and  _604
REMARK  240  A    between atoms: _604  and  _605
REMARK  241  A    between atoms: _604  and  _607
REMARK                            x       y       z     vdW  Elec       q    Type
REMARK                         _______ _______ _______ _____ _____    ______ ____
ROOT
ATOM      1  O   HOH     1       2.265  -9.578   6.564  0.00  0.00    +0.000 OA
ENDROOT
TORSDOF 0
REMARK  Name = ../refined-set-2016/4xu1/4xu1_pocket.pdb
REMARK  241 active torsions:
REMARK  status: ('A' for Active; 'I' for Inactive)
REMARK    1  A    between atoms: _1  and  _3
REMARK    2  A    between atoms: _3  and  _4
REMARK    3  A    between atoms: _3  and  _6
REMARK    4  A    between atoms: _6  and  _7
REMARK    5  A    between atoms: _10  and  _12
REMARK    6  A    between atoms: _12  and  _13
REMARK    7  A    between atoms: _15  and  _17
REMARK    8  A    between atoms: _17  and  _18
REMARK    9  A    between atoms: _17  and  _20
REMARK   10  A    between atoms: _20  and  _21
REMARK   11  A    between atoms: _23  and  _25
REMARK   12  A    between atoms: _25  and  _26
REMARK   13  A    between atoms: _25  and  _28
REMARK   14  A    between atoms: _28  and  _29
REMARK   15  A    between atoms: _32  and  _34
REMARK   16  A    between atoms: _34  and  _35
REMARK   17  A    between atoms: _34  and  _37
REMARK   18  A    between atoms: _37  and  _38
REMARK   19  A    between atoms: _43  and  _45
REMARK   20  A    between atoms: _45  and  _46
REMARK   21  A    between atoms: _49  and  _51
REMARK   22  A    between atoms: _51  and  _52
REMARK   23  A    between atoms: _51  and  _54
REMARK   24  A    between atoms: _54  and  _55
REMARK   25  A    between atoms: _58  and  _60
REMARK   26  A    between atoms: _60  and  _61
REMARK   27  A    between atoms: _60  and  _63
REMARK   28  A    between atoms: _63  and  _64
REMARK   29  A    between atoms: _67  and  _69
REMARK   30  A    between atoms: _69  and  _70
REMARK   31  A    between atoms: _69  and  _72
REMARK   32  A    between atoms: _72  and  _73
REMARK   33  A    between atoms: _76  and  _78
REMARK   34  A    between atoms: _78  and  _79
REMARK   35  A    between atoms: _78  and  _81
REMARK   36  A    between atoms: _81  and  _82
REMARK   37  A    between atoms: _85  and  _87
REMARK   38  A    between atoms: _87  and  _88
REMARK   39  A    between atoms: _91  and  _93
REMARK   40  A    between atoms: _93  and  _94
REMARK   41  A    between atoms: _93  and  _96
REMARK   42  A    between atoms: _96  and  _97
REMARK   43  A    between atoms: _97  and  _98
REMARK   44  A    between atoms: _103  and  _105
REMARK   45  A    between atoms: _105  and  _106
REMARK   46  A    between atoms: _105  and  _108
REMARK   47  A    between atoms: _108  and  _109
REMARK   48  A    between atoms: _112  and  _114
REMARK   49  A    between atoms: _114  and  _115
REMARK   50  A    between atoms: _118  and  _120
REMARK   51  A    between atoms: _120  and  _121
REMARK   52  A    between atoms: _123  and  _125
REMARK   53  A    between atoms: _125  and  _126
REMARK   54  A    between atoms: _125  and  _128
REMARK   55  A    between atoms: _128  and  _129
REMARK   56  A    between atoms: _129  and  _130
REMARK   57  A    between atoms: _130  and  _131
REMARK   58  A    between atoms: _140  and  _142
REMARK   59  A    between atoms: _142  and  _143
REMARK   60  A    between atoms: _145  and  _147
REMARK   61  A    between atoms: _147  and  _148
REMARK   62  A    between atoms: _147  and  _150
REMARK   63  A    between atoms: _150  and  _151
REMARK   64  A    between atoms: _151  and  _152
REMARK   65  A    between atoms: _152  and  _153
REMARK   66  A    between atoms: _162  and  _164
REMARK   67  A    between atoms: _164  and  _165
REMARK   68  A    between atoms: _164  and  _167
REMARK   69  A    between atoms: _167  and  _168
REMARK   70  A    between atoms: _173  and  _175
REMARK   71  A    between atoms: _175  and  _176
REMARK   72  A    between atoms: _178  and  _180
REMARK   73  A    between atoms: _180  and  _181
REMARK   74  A    between atoms: _180  and  _183
REMARK   75  A    between atoms: _183  and  _184
REMARK   76  A    between atoms: _184  and  _185
REMARK   77  A    between atoms: _185  and  _186
REMARK   78  A    between atoms: _195  and  _197
REMARK   79  A    between atoms: _197  and  _198
REMARK   80  A    between atoms: _200  and  _202
REMARK   81  A    between atoms: _202  and  _203
REMARK   82  A    between atoms: _202  and  _205
REMARK   83  A    between atoms: _205  and  _206
REMARK   84  A    between atoms: _216  and  _218
REMARK   85  A    between atoms: _218  and  _219
REMARK   86  A    between atoms: _222  and  _224
REMARK   87  A    between atoms: _224  and  _225
REMARK   88  A    between atoms: _228  and  _230
REMARK   89  A    between atoms: _230  and  _231
REMARK   90  A    between atoms: _230  and  _233
REMARK   91  A    between atoms: _233  and  _234
REMARK   92  A    between atoms: _237  and  _239
REMARK   93  A    between atoms: _239  and  _240
REMARK   94  A    between atoms: _243  and  _245
REMARK   95  A    between atoms: _245  and  _246
REMARK   96  A    between atoms: _245  and  _248
REMARK   97  A    between atoms: _248  and  _249
REMARK   98  A    between atoms: _249  and  _250
REMARK   99  A    between atoms: _255  and  _257
REMARK  100  A    between atoms: _257  and  _258
REMARK  101  A    between atoms: _257  and  _260
REMARK  102  A    between atoms: _260  and  _261
REMARK  103  A    between atoms: _264  and  _266
REMARK  104  A    between atoms: _266  and  _267
REMARK  105  A    between atoms: _266  and  _269
REMARK  106  A    between atoms: _269  and  _270
REMARK  107  A    between atoms: _273  and  _275
REMARK  108  A    between atoms: _275  and  _276
REMARK  109  A    between atoms: _275  and  _278
REMARK  110  A    between atoms: _278  and  _279
REMARK  111  A    between atoms: _282  and  _284
REMARK  112  A    between atoms: _284  and  _285
REMARK  113  A    between atoms: _284  and  _287
REMARK  114  A    between atoms: _287  and  _288
REMARK  115  A    between atoms: _290  and  _292
REMARK  116  A    between atoms: _292  and  _293
REMARK  117  A    between atoms: _292  and  _295
REMARK  118  A    between atoms: _298  and  _300
REMARK  119  A    between atoms: _300  and  _301
REMARK  120  A    between atoms: _300  and  _303
REMARK  121  A    between atoms: _303  and  _304
REMARK  122  A    between atoms: _304  and  _305
REMARK  123  A    between atoms: _305  and  _306
REMARK  124  A    between atoms: _306  and  _307
REMARK  125  A    between atoms: _311  and  _313
REMARK  126  A    between atoms: _313  and  _314
REMARK  127  A    between atoms: _313  and  _316
REMARK  128  A    between atoms: _316  and  _317
REMARK  129  A    between atoms: _328  and  _329
REMARK  130  A    between atoms: _334  and  _336
REMARK  131  A    between atoms: _336  and  _337
REMARK  132  A    between atoms: _336  and  _339
REMARK  133  A    between atoms: _339  and  _340
REMARK  134  A    between atoms: _345  and  _347
REMARK  135  A    between atoms: _347  and  _348
REMARK  136  A    between atoms: _347  and  _350
REMARK  137  A    between atoms: _350  and  _351
REMARK  138  A    between atoms: _354  and  _356
REMARK  139  A    between atoms: _356  and  _357
REMARK  140  A    between atoms: _356  and  _359
REMARK  141  A    between atoms: _362  and  _364
REMARK  142  A    between atoms: _364  and  _365
REMARK  143  A    between atoms: _367  and  _369
REMARK  144  A    between atoms: _369  and  _370
REMARK  145  A    between atoms: _369  and  _372
REMARK  146  A    between atoms: _372  and  _373
REMARK  147  A    between atoms: _373  and  _374
REMARK  148  A    between atoms: _374  and  _375
REMARK  149  A    between atoms: _375  and  _376
REMARK  150  A    between atoms: _380  and  _382
REMARK  151  A    between atoms: _382  and  _383
REMARK  152  A    between atoms: _382  and  _385
REMARK  153  A    between atoms: _385  and  _386
REMARK  154  A    between atoms: _389  and  _391
REMARK  155  A    between atoms: _391  and  _392
REMARK  156  A    between atoms: _395  and  _397
REMARK  157  A    between atoms: _397  and  _398
REMARK  158  A    between atoms: _400  and  _402
REMARK  159  A    between atoms: _402  and  _403
REMARK  160  A    between atoms: _402  and  _405
REMARK  161  A    between atoms: _405  and  _406
REMARK  162  A    between atoms: _409  and  _411
REMARK  163  A    between atoms: _411  and  _412
REMARK  164  A    between atoms: _411  and  _414
REMARK  165  A    between atoms: _414  and  _415
REMARK  166  A    between atoms: _418  and  _420
REMARK  167  A    between atoms: _420  and  _421
REMARK  168  A    between atoms: _424  and  _426
REMARK  169  A    between atoms: _426  and  _427
REMARK  170  A    between atoms: _426  and  _429
REMARK  171  A    between atoms: _429  and  _430
REMARK  172  A    between atoms: _430  and  _431
REMARK  173  A    between atoms: _434  and  _436
REMARK  174  A    between atoms: _436  and  _437
REMARK  175  A    between atoms: _436  and  _439
REMARK  176  A    between atoms: _442  and  _444
REMARK  177  A    between atoms: _444  and  _445
REMARK  178  A    between atoms: _444  and  _447
REMARK  179  A    between atoms: _447  and  _448
REMARK  180  A    between atoms: _451  and  _453
REMARK  181  A    between atoms: _453  and  _454
REMARK  182  A    between atoms: _456  and  _458
REMARK  183  A    between atoms: _458  and  _459
REMARK  184  A    between atoms: _458  and  _461
REMARK  185  A    between atoms: _464  and  _466
REMARK  186  A    between atoms: _466  and  _467
REMARK  187  A    between atoms: _469  and  _471
REMARK  188  A    between atoms: _471  and  _472
REMARK  189  A    between atoms: _471  and  _474
REMARK  190  A    between atoms: _474  and  _475
REMARK  191  A    between atoms: _478  and  _480
REMARK  192  A    between atoms: _480  and  _481
REMARK  193  A    between atoms: _480  and  _483
REMARK  194  A    between atoms: _483  and  _484
REMARK  195  A    between atoms: _489  and  _491
REMARK  196  A    between atoms: _491  and  _492
REMARK  197  A    between atoms: _491  and  _494
REMARK  198  A    between atoms: _497  and  _499
REMARK  199  A    between atoms: _499  and  _500
REMARK  200  A    between atoms: _499  and  _502
REMARK  201  A    between atoms: _502  and  _503
REMARK  202  A    between atoms: _503  and  _504
REMARK  203  A    between atoms: _509  and  _511
REMARK  204  A    between atoms: _511  and  _512
REMARK  205  A    between atoms: _516  and  _517
REMARK  206  A    between atoms: _522  and  _524
REMARK  207  A    between atoms: _524  and  _525
REMARK  208  A    between atoms: _524  and  _527
REMARK  209  A    between atoms: _527  and  _528
REMARK  210  A    between atoms: _528  and  _529
REMARK  211  A    between atoms: _532  and  _534
REMARK  212  A    between atoms: _534  and  _535
REMARK  213  A    between atoms: _534  and  _537
REMARK  214  A    between atoms: _540  and  _542
REMARK  215  A    between atoms: _542  and  _543
REMARK  216  A    between atoms: _542  and  _545
REMARK  217  A    between atoms: _545  and  _546
REMARK  218  A    between atoms: _550  and  _551
REMARK  219  A    between atoms: _556  and  _558
REMARK  220  A    between atoms: _558  and  _559
REMARK  221  A    between atoms: _558  and  _561
REMARK  222  A    between atoms: _561  and  _562
REMARK  223  A    between atoms: _565  and  _567
REMARK  224  A    between atoms: _567  and  _568
REMARK  225  A    between atoms: _571  and  _573
REMARK  226  A    between atoms: _573  and  _574
REMARK  227  A    between atoms: _573  and  _576
REMARK  228  A    between atoms: _576  and  _577
REMARK  229  A    between atoms: _580  and  _582
REMARK  230  A    between atoms: _582  and  _583
REMARK  231  A    between atoms: _582  and  _585
REMARK  232  A    between atoms: _585  and  _586
REMARK  233  A    between atoms: _588  and  _590
REMARK  234  A    between atoms: _590  and  _591
REMARK  235  A    between atoms: _593  and  _595
REMARK  236  A    between atoms: _595  and  _596
REMARK  237  A    between atoms: _595  and  _598
REMARK  238  A    between atoms: _598  and  _599
REMARK  239  A    between atoms: _602  and  _604
REMARK  240  A    between atoms: _604  and  _605
REMARK  241  A    between atoms: _604  and  _607
REMARK                            x       y       z     vdW  Elec       q    Type
REMARK                         _______ _______ _______ _____ _____    ______ ____
ROOT
ATOM      1  O   HOH     1      -9.689   1.541   5.076  0.00  0.00    +0.000 OA
ENDROOT
TORSDOF 0
REMARK  Name = ../refined-set-2016/4xu1/4xu1_pocket.pdb
REMARK  241 active torsions:
REMARK  status: ('A' for Active; 'I' for Inactive)
REMARK    1  A    between atoms: _1  and  _3
REMARK    2  A    between atoms: _3  and  _4
REMARK    3  A    between atoms: _3  and  _6
REMARK    4  A    between atoms: _6  and  _7
REMARK    5  A    between atoms: _10  and  _12
REMARK    6  A    between atoms: _12  and  _13
REMARK    7  A    between atoms: _15  and  _17
REMARK    8  A    between atoms: _17  and  _18
REMARK    9  A    between atoms: _17  and  _20
REMARK   10  A    between atoms: _20  and  _21
REMARK   11  A    between atoms: _23  and  _25
REMARK   12  A    between atoms: _25  and  _26
REMARK   13  A    between atoms: _25  and  _28
REMARK   14  A    between atoms: _28  and  _29
REMARK   15  A    between atoms: _32  and  _34
REMARK   16  A    between atoms: _34  and  _35
REMARK   17  A    between atoms: _34  and  _37
REMARK   18  A    between atoms: _37  and  _38
REMARK   19  A    between atoms: _43  and  _45
REMARK   20  A    between atoms: _45  and  _46
REMARK   21  A    between atoms: _49  and  _51
REMARK   22  A    between atoms: _51  and  _52
REMARK   23  A    between atoms: _51  and  _54
REMARK   24  A    between atoms: _54  and  _55
REMARK   25  A    between atoms: _58  and  _60
REMARK   26  A    between atoms: _60  and  _61
REMARK   27  A    between atoms: _60  and  _63
REMARK   28  A    between atoms: _63  and  _64
REMARK   29  A    between atoms: _67  and  _69
REMARK   30  A    between atoms: _69  and  _70
REMARK   31  A    between atoms: _69  and  _72
REMARK   32  A    between atoms: _72  and  _73
REMARK   33  A    between atoms: _76  and  _78
REMARK   34  A    between atoms: _78  and  _79
REMARK   35  A    between atoms: _78  and  _81
REMARK   36  A    between atoms: _81  and  _82
REMARK   37  A    between atoms: _85  and  _87
REMARK   38  A    between atoms: _87  and  _88
REMARK   39  A    between atoms: _91  and  _93
REMARK   40  A    between atoms: _93  and  _94
REMARK   41  A    between atoms: _93  and  _96
REMARK   42  A    between atoms: _96  and  _97
REMARK   43  A    between atoms: _97  and  _98
REMARK   44  A    between atoms: _103  and  _105
REMARK   45  A    between atoms: _105  and  _106
REMARK   46  A    between atoms: _105  and  _108
REMARK   47  A    between atoms: _108  and  _109
REMARK   48  A    between atoms: _112  and  _114
REMARK   49  A    between atoms: _114  and  _115
REMARK   50  A    between atoms: _118  and  _120
REMARK   51  A    between atoms: _120  and  _121
REMARK   52  A    between atoms: _123  and  _125
REMARK   53  A    between atoms: _125  and  _126
REMARK   54  A    between atoms: _125  and  _128
REMARK   55  A    between atoms: _128  and  _129
REMARK   56  A    between atoms: _129  and  _130
REMARK   57  A    between atoms: _130  and  _131
REMARK   58  A    between atoms: _140  and  _142
REMARK   59  A    between atoms: _142  and  _143
REMARK   60  A    between atoms: _145  and  _147
REMARK   61  A    between atoms: _147  and  _148
REMARK   62  A    between atoms: _147  and  _150
REMARK   63  A    between atoms: _150  and  _151
REMARK   64  A    between atoms: _151  and  _152
REMARK   65  A    between atoms: _152  and  _153
REMARK   66  A    between atoms: _162  and  _164
REMARK   67  A    between atoms: _164  and  _165
REMARK   68  A    between atoms: _164  and  _167
REMARK   69  A    between atoms: _167  and  _168
REMARK   70  A    between atoms: _173  and  _175
REMARK   71  A    between atoms: _175  and  _176
REMARK   72  A    between atoms: _178  and  _180
REMARK   73  A    between atoms: _180  and  _181
REMARK   74  A    between atoms: _180  and  _183
REMARK   75  A    between atoms: _183  and  _184
REMARK   76  A    between atoms: _184  and  _185
REMARK   77  A    between atoms: _185  and  _186
REMARK   78  A    between atoms: _195  and  _197
REMARK   79  A    between atoms: _197  and  _198
REMARK   80  A    between atoms: _200  and  _202
REMARK   81  A    between atoms: _202  and  _203
REMARK   82  A    between atoms: _202  and  _205
REMARK   83  A    between atoms: _205  and  _206
REMARK   84  A    between atoms: _216  and  _218
REMARK   85  A    between atoms: _218  and  _219
REMARK   86  A    between atoms: _222  and  _224
REMARK   87  A    between atoms: _224  and  _225
REMARK   88  A    between atoms: _228  and  _230
REMARK   89  A    between atoms: _230  and  _231
REMARK   90  A    between atoms: _230  and  _233
REMARK   91  A    between atoms: _233  and  _234
REMARK   92  A    between atoms: _237  and  _239
REMARK   93  A    between atoms: _239  and  _240
REMARK   94  A    between atoms: _243  and  _245
REMARK   95  A    between atoms: _245  and  _246
REMARK   96  A    between atoms: _245  and  _248
REMARK   97  A    between atoms: _248  and  _249
REMARK   98  A    between atoms: _249  and  _250
REMARK   99  A    between atoms: _255  and  _257
REMARK  100  A    between atoms: _257  and  _258
REMARK  101  A    between atoms: _257  and  _260
REMARK  102  A    between atoms: _260  and  _261
REMARK  103  A    between atoms: _264  and  _266
REMARK  104  A    between atoms: _266  and  _267
REMARK  105  A    between atoms: _266  and  _269
REMARK  106  A    between atoms: _269  and  _270
REMARK  107  A    between atoms: _273  and  _275
REMARK  108  A    between atoms: _275  and  _276
REMARK  109  A    between atoms: _275  and  _278
REMARK  110  A    between atoms: _278  and  _279
REMARK  111  A    between atoms: _282  and  _284
REMARK  112  A    between atoms: _284  and  _285
REMARK  113  A    between atoms: _284  and  _287
REMARK  114  A    between atoms: _287  and  _288
REMARK  115  A    between atoms: _290  and  _292
REMARK  116  A    between atoms: _292  and  _293
REMARK  117  A    between atoms: _292  and  _295
REMARK  118  A    between atoms: _298  and  _300
REMARK  119  A    between atoms: _300  and  _301
REMARK  120  A    between atoms: _300  and  _303
REMARK  121  A    between atoms: _303  and  _304
REMARK  122  A    between atoms: _304  and  _305
REMARK  123  A    between atoms: _305  and  _306
REMARK  124  A    between atoms: _306  and  _307
REMARK  125  A    between atoms: _311  and  _313
REMARK  126  A    between atoms: _313  and  _314
REMARK  127  A    between atoms: _313  and  _316
REMARK  128  A    between atoms: _316  and  _317
REMARK  129  A    between atoms: _328  and  _329
REMARK  130  A    between atoms: _334  and  _336
REMARK  131  A    between atoms: _336  and  _337
REMARK  132  A    between atoms: _336  and  _339
REMARK  133  A    between atoms: _339  and  _340
REMARK  134  A    between atoms: _345  and  _347
REMARK  135  A    between atoms: _347  and  _348
REMARK  136  A    between atoms: _347  and  _350
REMARK  137  A    between atoms: _350  and  _351
REMARK  138  A    between atoms: _354  and  _356
REMARK  139  A    between atoms: _356  and  _357
REMARK  140  A    between atoms: _356  and  _359
REMARK  141  A    between atoms: _362  and  _364
REMARK  142  A    between atoms: _364  and  _365
REMARK  143  A    between atoms: _367  and  _369
REMARK  144  A    between atoms: _369  and  _370
REMARK  145  A    between atoms: _369  and  _372
REMARK  146  A    between atoms: _372  and  _373
REMARK  147  A    between atoms: _373  and  _374
REMARK  148  A    between atoms: _374  and  _375
REMARK  149  A    between atoms: _375  and  _376
REMARK  150  A    between atoms: _380  and  _382
REMARK  151  A    between atoms: _382  and  _383
REMARK  152  A    between atoms: _382  and  _385
REMARK  153  A    between atoms: _385  and  _386
REMARK  154  A    between atoms: _389  and  _391
REMARK  155  A    between atoms: _391  and  _392
REMARK  156  A    between atoms: _395  and  _397
REMARK  157  A    between atoms: _397  and  _398
REMARK  158  A    between atoms: _400  and  _402
REMARK  159  A    between atoms: _402  and  _403
REMARK  160  A    between atoms: _402  and  _405
REMARK  161  A    between atoms: _405  and  _406
REMARK  162  A    between atoms: _409  and  _411
REMARK  163  A    between atoms: _411  and  _412
REMARK  164  A    between atoms: _411  and  _414
REMARK  165  A    between atoms: _414  and  _415
REMARK  166  A    between atoms: _418  and  _420
REMARK  167  A    between atoms: _420  and  _421
REMARK  168  A    between atoms: _424  and  _426
REMARK  169  A    between atoms: _426  and  _427
REMARK  170  A    between atoms: _426  and  _429
REMARK  171  A    between atoms: _429  and  _430
REMARK  172  A    between atoms: _430  and  _431
REMARK  173  A    between atoms: _434  and  _436
REMARK  174  A    between atoms: _436  and  _437
REMARK  175  A    between atoms: _436  and  _439
REMARK  176  A    between atoms: _442  and  _444
REMARK  177  A    between atoms: _444  and  _445
REMARK  178  A    between atoms: _444  and  _447
REMARK  179  A    between atoms: _447  and  _448
REMARK  180  A    between atoms: _451  and  _453
REMARK  181  A    between atoms: _453  and  _454
REMARK  182  A    between atoms: _456  and  _458
REMARK  183  A    between atoms: _458  and  _459
REMARK  184  A    between atoms: _458  and  _461
REMARK  185  A    between atoms: _464  and  _466
REMARK  186  A    between atoms: _466  and  _467
REMARK  187  A    between atoms: _469  and  _471
REMARK  188  A    between atoms: _471  and  _472
REMARK  189  A    between atoms: _471  and  _474
REMARK  190  A    between atoms: _474  and  _475
REMARK  191  A    between atoms: _478  and  _480
REMARK  192  A    between atoms: _480  and  _481
REMARK  193  A    between atoms: _480  and  _483
REMARK  194  A    between atoms: _483  and  _484
REMARK  195  A    between atoms: _489  and  _491
REMARK  196  A    between atoms: _491  and  _492
REMARK  197  A    between atoms: _491  and  _494
REMARK  198  A    between atoms: _497  and  _499
REMARK  199  A    between atoms: _499  and  _500
REMARK  200  A    between atoms: _499  and  _502
REMARK  201  A    between atoms: _502  and  _503
REMARK  202  A    between atoms: _503  and  _504
REMARK  203  A    between atoms: _509  and  _511
REMARK  204  A    between atoms: _511  and  _512
REMARK  205  A    between atoms: _516  and  _517
REMARK  206  A    between atoms: _522  and  _524
REMARK  207  A    between atoms: _524  and  _525
REMARK  208  A    between atoms: _524  and  _527
REMARK  209  A    between atoms: _527  and  _528
REMARK  210  A    between atoms: _528  and  _529
REMARK  211  A    between atoms: _532  and  _534
REMARK  212  A    between atoms: _534  and  _535
REMARK  213  A    between atoms: _534  and  _537
REMARK  214  A    between atoms: _540  and  _542
REMARK  215  A    between atoms: _542  and  _543
REMARK  216  A    between atoms: _542  and  _545
REMARK  217  A    between atoms: _545  and  _546
REMARK  218  A    between atoms: _550  and  _551
REMARK  219  A    between atoms: _556  and  _558
REMARK  220  A    between atoms: _558  and  _559
REMARK  221  A    between atoms: _558  and  _561
REMARK  222  A    between atoms: _561  and  _562
REMARK  223  A    between atoms: _565  and  _567
REMARK  224  A    between atoms: _567  and  _568
REMARK  225  A    between atoms: _571  and  _573
REMARK  226  A    between atoms: _573  and  _574
REMARK  227  A    between atoms: _573  and  _576
REMARK  228  A    between atoms: _576  and  _577
REMARK  229  A    between atoms: _580  and  _582
REMARK  230  A    between atoms: _582  and  _583
REMARK  231  A    between atoms: _582  and  _585
REMARK  232  A    between atoms: _585  and  _586
REMARK  233  A    between atoms: _588  and  _590
REMARK  234  A    between atoms: _590  and  _591
REMARK  235  A    between atoms: _593  and  _595
REMARK  236  A    between atoms: _595  and  _596
REMARK  237  A    between atoms: _595  and  _598
REMARK  238  A    between atoms: _598  and  _599
REMARK  239  A    between atoms: _602  and  _604
REMARK  240  A    between atoms: _604  and  _605
REMARK  241  A    between atoms: _604  and  _607
REMARK                            x       y       z     vdW  Elec       q    Type
REMARK                         _______ _______ _______ _____ _____    ______ ____
ROOT
ATOM      1  O   HOH     1       4.183  -7.055   9.187  0.00  0.00    +0.000 OA
ENDROOT
TORSDOF 0
REMARK  Name = ../refined-set-2016/4xu1/4xu1_pocket.pdb
REMARK  241 active torsions:
REMARK  status: ('A' for Active; 'I' for Inactive)
REMARK    1  A    between atoms: _1  and  _3
REMARK    2  A    between atoms: _3  and  _4
REMARK    3  A    between atoms: _3  and  _6
REMARK    4  A    between atoms: _6  and  _7
REMARK    5  A    between atoms: _10  and  _12
REMARK    6  A    between atoms: _12  and  _13
REMARK    7  A    between atoms: _15  and  _17
REMARK    8  A    between atoms: _17  and  _18
REMARK    9  A    between atoms: _17  and  _20
REMARK   10  A    between atoms: _20  and  _21
REMARK   11  A    between atoms: _23  and  _25
REMARK   12  A    between atoms: _25  and  _26
REMARK   13  A    between atoms: _25  and  _28
REMARK   14  A    between atoms: _28  and  _29
REMARK   15  A    between atoms: _32  and  _34
REMARK   16  A    between atoms: _34  and  _35
REMARK   17  A    between atoms: _34  and  _37
REMARK   18  A    between atoms: _37  and  _38
REMARK   19  A    between atoms: _43  and  _45
REMARK   20  A    between atoms: _45  and  _46
REMARK   21  A    between atoms: _49  and  _51
REMARK   22  A    between atoms: _51  and  _52
REMARK   23  A    between atoms: _51  and  _54
REMARK   24  A    between atoms: _54  and  _55
REMARK   25  A    between atoms: _58  and  _60
REMARK   26  A    between atoms: _60  and  _61
REMARK   27  A    between atoms: _60  and  _63
REMARK   28  A    between atoms: _63  and  _64
REMARK   29  A    between atoms: _67  and  _69
REMARK   30  A    between atoms: _69  and  _70
REMARK   31  A    between atoms: _69  and  _72
REMARK   32  A    between atoms: _72  and  _73
REMARK   33  A    between atoms: _76  and  _78
REMARK   34  A    between atoms: _78  and  _79
REMARK   35  A    between atoms: _78  and  _81
REMARK   36  A    between atoms: _81  and  _82
REMARK   37  A    between atoms: _85  and  _87
REMARK   38  A    between atoms: _87  and  _88
REMARK   39  A    between atoms: _91  and  _93
REMARK   40  A    between atoms: _93  and  _94
REMARK   41  A    between atoms: _93  and  _96
REMARK   42  A    between atoms: _96  and  _97
REMARK   43  A    between atoms: _97  and  _98
REMARK   44  A    between atoms: _103  and  _105
REMARK   45  A    between atoms: _105  and  _106
REMARK   46  A    between atoms: _105  and  _108
REMARK   47  A    between atoms: _108  and  _109
REMARK   48  A    between atoms: _112  and  _114
REMARK   49  A    between atoms: _114  and  _115
REMARK   50  A    between atoms: _118  and  _120
REMARK   51  A    between atoms: _120  and  _121
REMARK   52  A    between atoms: _123  and  _125
REMARK   53  A    between atoms: _125  and  _126
REMARK   54  A    between atoms: _125  and  _128
REMARK   55  A    between atoms: _128  and  _129
REMARK   56  A    between atoms: _129  and  _130
REMARK   57  A    between atoms: _130  and  _131
REMARK   58  A    between atoms: _140  and  _142
REMARK   59  A    between atoms: _142  and  _143
REMARK   60  A    between atoms: _145  and  _147
REMARK   61  A    between atoms: _147  and  _148
REMARK   62  A    between atoms: _147  and  _150
REMARK   63  A    between atoms: _150  and  _151
REMARK   64  A    between atoms: _151  and  _152
REMARK   65  A    between atoms: _152  and  _153
REMARK   66  A    between atoms: _162  and  _164
REMARK   67  A    between atoms: _164  and  _165
REMARK   68  A    between atoms: _164  and  _167
REMARK   69  A    between atoms: _167  and  _168
REMARK   70  A    between atoms: _173  and  _175
REMARK   71  A    between atoms: _175  and  _176
REMARK   72  A    between atoms: _178  and  _180
REMARK   73  A    between atoms: _180  and  _181
REMARK   74  A    between atoms: _180  and  _183
REMARK   75  A    between atoms: _183  and  _184
REMARK   76  A    between atoms: _184  and  _185
REMARK   77  A    between atoms: _185  and  _186
REMARK   78  A    between atoms: _195  and  _197
REMARK   79  A    between atoms: _197  and  _198
REMARK   80  A    between atoms: _200  and  _202
REMARK   81  A    between atoms: _202  and  _203
REMARK   82  A    between atoms: _202  and  _205
REMARK   83  A    between atoms: _205  and  _206
REMARK   84  A    between atoms: _216  and  _218
REMARK   85  A    between atoms: _218  and  _219
REMARK   86  A    between atoms: _222  and  _224
REMARK   87  A    between atoms: _224  and  _225
REMARK   88  A    between atoms: _228  and  _230
REMARK   89  A    between atoms: _230  and  _231
REMARK   90  A    between atoms: _230  and  _233
REMARK   91  A    between atoms: _233  and  _234
REMARK   92  A    between atoms: _237  and  _239
REMARK   93  A    between atoms: _239  and  _240
REMARK   94  A    between atoms: _243  and  _245
REMARK   95  A    between atoms: _245  and  _246
REMARK   96  A    between atoms: _245  and  _248
REMARK   97  A    between atoms: _248  and  _249
REMARK   98  A    between atoms: _249  and  _250
REMARK   99  A    between atoms: _255  and  _257
REMARK  100  A    between atoms: _257  and  _258
REMARK  101  A    between atoms: _257  and  _260
REMARK  102  A    between atoms: _260  and  _261
REMARK  103  A    between atoms: _264  and  _266
REMARK  104  A    between atoms: _266  and  _267
REMARK  105  A    between atoms: _266  and  _269
REMARK  106  A    between atoms: _269  and  _270
REMARK  107  A    between atoms: _273  and  _275
REMARK  108  A    between atoms: _275  and  _276
REMARK  109  A    between atoms: _275  and  _278
REMARK  110  A    between atoms: _278  and  _279
REMARK  111  A    between atoms: _282  and  _284
REMARK  112  A    between atoms: _284  and  _285
REMARK  113  A    between atoms: _284  and  _287
REMARK  114  A    between atoms: _287  and  _288
REMARK  115  A    between atoms: _290  and  _292
REMARK  116  A    between atoms: _292  and  _293
REMARK  117  A    between atoms: _292  and  _295
REMARK  118  A    between atoms: _298  and  _300
REMARK  119  A    between atoms: _300  and  _301
REMARK  120  A    between atoms: _300  and  _303
REMARK  121  A    between atoms: _303  and  _304
REMARK  122  A    between atoms: _304  and  _305
REMARK  123  A    between atoms: _305  and  _306
REMARK  124  A    between atoms: _306  and  _307
REMARK  125  A    between atoms: _311  and  _313
REMARK  126  A    between atoms: _313  and  _314
REMARK  127  A    between atoms: _313  and  _316
REMARK  128  A    between atoms: _316  and  _317
REMARK  129  A    between atoms: _328  and  _329
REMARK  130  A    between atoms: _334  and  _336
REMARK  131  A    between atoms: _336  and  _337
REMARK  132  A    between atoms: _336  and  _339
REMARK  133  A    between atoms: _339  and  _340
REMARK  134  A    between atoms: _345  and  _347
REMARK  135  A    between atoms: _347  and  _348
REMARK  136  A    between atoms: _347  and  _350
REMARK  137  A    between atoms: _350  and  _351
REMARK  138  A    between atoms: _354  and  _356
REMARK  139  A    between atoms: _356  and  _357
REMARK  140  A    between atoms: _356  and  _359
REMARK  141  A    between atoms: _362  and  _364
REMARK  142  A    between atoms: _364  and  _365
REMARK  143  A    between atoms: _367  and  _369
REMARK  144  A    between atoms: _369  and  _370
REMARK  145  A    between atoms: _369  and  _372
REMARK  146  A    between atoms: _372  and  _373
REMARK  147  A    between atoms: _373  and  _374
REMARK  148  A    between atoms: _374  and  _375
REMARK  149  A    between atoms: _375  and  _376
REMARK  150  A    between atoms: _380  and  _382
REMARK  151  A    between atoms: _382  and  _383
REMARK  152  A    between atoms: _382  and  _385
REMARK  153  A    between atoms: _385  and  _386
REMARK  154  A    between atoms: _389  and  _391
REMARK  155  A    between atoms: _391  and  _392
REMARK  156  A    between atoms: _395  and  _397
REMARK  157  A    between atoms: _397  and  _398
REMARK  158  A    between atoms: _400  and  _402
REMARK  159  A    between atoms: _402  and  _403
REMARK  160  A    between atoms: _402  and  _405
REMARK  161  A    between atoms: _405  and  _406
REMARK  162  A    between atoms: _409  and  _411
REMARK  163  A    between atoms: _411  and  _412
REMARK  164  A    between atoms: _411  and  _414
REMARK  165  A    between atoms: _414  and  _415
REMARK  166  A    between atoms: _418  and  _420
REMARK  167  A    between atoms: _420  and  _421
REMARK  168  A    between atoms: _424  and  _426
REMARK  169  A    between atoms: _426  and  _427
REMARK  170  A    between atoms: _426  and  _429
REMARK  171  A    between atoms: _429  and  _430
REMARK  172  A    between atoms: _430  and  _431
REMARK  173  A    between atoms: _434  and  _436
REMARK  174  A    between atoms: _436  and  _437
REMARK  175  A    between atoms: _436  and  _439
REMARK  176  A    between atoms: _442  and  _444
REMARK  177  A    between atoms: _444  and  _445
REMARK  178  A    between atoms: _444  and  _447
REMARK  179  A    between atoms: _447  and  _448
REMARK  180  A    between atoms: _451  and  _453
REMARK  181  A    between atoms: _453  and  _454
REMARK  182  A    between atoms: _456  and  _458
REMARK  183  A    between atoms: _458  and  _459
REMARK  184  A    between atoms: _458  and  _461
REMARK  185  A    between atoms: _464  and  _466
REMARK  186  A    between atoms: _466  and  _467
REMARK  187  A    between atoms: _469  and  _471
REMARK  188  A    between atoms: _471  and  _472
REMARK  189  A    between atoms: _471  and  _474
REMARK  190  A    between atoms: _474  and  _475
REMARK  191  A    between atoms: _478  and  _480
REMARK  192  A    between atoms: _480  and  _481
REMARK  193  A    between atoms: _480  and  _483
REMARK  194  A    between atoms: _483  and  _484
REMARK  195  A    between atoms: _489  and  _491
REMARK  196  A    between atoms: _491  and  _492
REMARK  197  A    between atoms: _491  and  _494
REMARK  198  A    between atoms: _497  and  _499
REMARK  199  A    between atoms: _499  and  _500
REMARK  200  A    between atoms: _499  and  _502
REMARK  201  A    between atoms: _502  and  _503
REMARK  202  A    between atoms: _503  and  _504
REMARK  203  A    between atoms: _509  and  _511
REMARK  204  A    between atoms: _511  and  _512
REMARK  205  A    between atoms: _516  and  _517
REMARK  206  A    between atoms: _522  and  _524
REMARK  207  A    between atoms: _524  and  _525
REMARK  208  A    between atoms: _524  and  _527
REMARK  209  A    between atoms: _527  and  _528
REMARK  210  A    between atoms: _528  and  _529
REMARK  211  A    between atoms: _532  and  _534
REMARK  212  A    between atoms: _534  and  _535
REMARK  213  A    between atoms: _534  and  _537
REMARK  214  A    between atoms: _540  and  _542
REMARK  215  A    between atoms: _542  and  _543
REMARK  216  A    between atoms: _542  and  _545
REMARK  217  A    between atoms: _545  and  _546
REMARK  218  A    between atoms: _550  and  _551
REMARK  219  A    between atoms: _556  and  _558
REMARK  220  A    between atoms: _558  and  _559
REMARK  221  A    between atoms: _558  and  _561
REMARK  222  A    between atoms: _561  and  _562
REMARK  223  A    between atoms: _565  and  _567
REMARK  224  A    between atoms: _567  and  _568
REMARK  225  A    between atoms: _571  and  _573
REMARK  226  A    between atoms: _573  and  _574
REMARK  227  A    between atoms: _573  and  _576
REMARK  228  A    between atoms: _576  and  _577
REMARK  229  A    between atoms: _580  and  _582
REMARK  230  A    between atoms: _582  and  _583
REMARK  231  A    between atoms: _582  and  _585
REMARK  232  A    between atoms: _585  and  _586
REMARK  233  A    between atoms: _588  and  _590
REMARK  234  A    between atoms: _590  and  _591
REMARK  235  A    between atoms: _593  and  _595
REMARK  236  A    between atoms: _595  and  _596
REMARK  237  A    between atoms: _595  and  _598
REMARK  238  A    between atoms: _598  and  _599
REMARK  239  A    between atoms: _602  and  _604
REMARK  240  A    between atoms: _604  and  _605
REMARK  241  A    between atoms: _604  and  _607
REMARK                            x       y       z     vdW  Elec       q    Type
REMARK                         _______ _______ _______ _____ _____    ______ ____
ROOT
ATOM      1  O   HOH     1      -8.842  -4.794   3.465  0.00  0.00    +0.000 OA
ENDROOT
TORSDOF 0
REMARK  Name = ../refined-set-2016/4xu1/4xu1_pocket.pdb
REMARK  241 active torsions:
REMARK  status: ('A' for Active; 'I' for Inactive)
REMARK    1  A    between atoms: _1  and  _3
REMARK    2  A    between atoms: _3  and  _4
REMARK    3  A    between atoms: _3  and  _6
REMARK    4  A    between atoms: _6  and  _7
REMARK    5  A    between atoms: _10  and  _12
REMARK    6  A    between atoms: _12  and  _13
REMARK    7  A    between atoms: _15  and  _17
REMARK    8  A    between atoms: _17  and  _18
REMARK    9  A    between atoms: _17  and  _20
REMARK   10  A    between atoms: _20  and  _21
REMARK   11  A    between atoms: _23  and  _25
REMARK   12  A    between atoms: _25  and  _26
REMARK   13  A    between atoms: _25  and  _28
REMARK   14  A    between atoms: _28  and  _29
REMARK   15  A    between atoms: _32  and  _34
REMARK   16  A    between atoms: _34  and  _35
REMARK   17  A    between atoms: _34  and  _37
REMARK   18  A    between atoms: _37  and  _38
REMARK   19  A    between atoms: _43  and  _45
REMARK   20  A    between atoms: _45  and  _46
REMARK   21  A    between atoms: _49  and  _51
REMARK   22  A    between atoms: _51  and  _52
REMARK   23  A    between atoms: _51  and  _54
REMARK   24  A    between atoms: _54  and  _55
REMARK   25  A    between atoms: _58  and  _60
REMARK   26  A    between atoms: _60  and  _61
REMARK   27  A    between atoms: _60  and  _63
REMARK   28  A    between atoms: _63  and  _64
REMARK   29  A    between atoms: _67  and  _69
REMARK   30  A    between atoms: _69  and  _70
REMARK   31  A    between atoms: _69  and  _72
REMARK   32  A    between atoms: _72  and  _73
REMARK   33  A    between atoms: _76  and  _78
REMARK   34  A    between atoms: _78  and  _79
REMARK   35  A    between atoms: _78  and  _81
REMARK   36  A    between atoms: _81  and  _82
REMARK   37  A    between atoms: _85  and  _87
REMARK   38  A    between atoms: _87  and  _88
REMARK   39  A    between atoms: _91  and  _93
REMARK   40  A    between atoms: _93  and  _94
REMARK   41  A    between atoms: _93  and  _96
REMARK   42  A    between atoms: _96  and  _97
REMARK   43  A    between atoms: _97  and  _98
REMARK   44  A    between atoms: _103  and  _105
REMARK   45  A    between atoms: _105  and  _106
REMARK   46  A    between atoms: _105  and  _108
REMARK   47  A    between atoms: _108  and  _109
REMARK   48  A    between atoms: _112  and  _114
REMARK   49  A    between atoms: _114  and  _115
REMARK   50  A    between atoms: _118  and  _120
REMARK   51  A    between atoms: _120  and  _121
REMARK   52  A    between atoms: _123  and  _125
REMARK   53  A    between atoms: _125  and  _126
REMARK   54  A    between atoms: _125  and  _128
REMARK   55  A    between atoms: _128  and  _129
REMARK   56  A    between atoms: _129  and  _130
REMARK   57  A    between atoms: _130  and  _131
REMARK   58  A    between atoms: _140  and  _142
REMARK   59  A    between atoms: _142  and  _143
REMARK   60  A    between atoms: _145  and  _147
REMARK   61  A    between atoms: _147  and  _148
REMARK   62  A    between atoms: _147  and  _150
REMARK   63  A    between atoms: _150  and  _151
REMARK   64  A    between atoms: _151  and  _152
REMARK   65  A    between atoms: _152  and  _153
REMARK   66  A    between atoms: _162  and  _164
REMARK   67  A    between atoms: _164  and  _165
REMARK   68  A    between atoms: _164  and  _167
REMARK   69  A    between atoms: _167  and  _168
REMARK   70  A    between atoms: _173  and  _175
REMARK   71  A    between atoms: _175  and  _176
REMARK   72  A    between atoms: _178  and  _180
REMARK   73  A    between atoms: _180  and  _181
REMARK   74  A    between atoms: _180  and  _183
REMARK   75  A    between atoms: _183  and  _184
REMARK   76  A    between atoms: _184  and  _185
REMARK   77  A    between atoms: _185  and  _186
REMARK   78  A    between atoms: _195  and  _197
REMARK   79  A    between atoms: _197  and  _198
REMARK   80  A    between atoms: _200  and  _202
REMARK   81  A    between atoms: _202  and  _203
REMARK   82  A    between atoms: _202  and  _205
REMARK   83  A    between atoms: _205  and  _206
REMARK   84  A    between atoms: _216  and  _218
REMARK   85  A    between atoms: _218  and  _219
REMARK   86  A    between atoms: _222  and  _224
REMARK   87  A    between atoms: _224  and  _225
REMARK   88  A    between atoms: _228  and  _230
REMARK   89  A    between atoms: _230  and  _231
REMARK   90  A    between atoms: _230  and  _233
REMARK   91  A    between atoms: _233  and  _234
REMARK   92  A    between atoms: _237  and  _239
REMARK   93  A    between atoms: _239  and  _240
REMARK   94  A    between atoms: _243  and  _245
REMARK   95  A    between atoms: _245  and  _246
REMARK   96  A    between atoms: _245  and  _248
REMARK   97  A    between atoms: _248  and  _249
REMARK   98  A    between atoms: _249  and  _250
REMARK   99  A    between atoms: _255  and  _257
REMARK  100  A    between atoms: _257  and  _258
REMARK  101  A    between atoms: _257  and  _260
REMARK  102  A    between atoms: _260  and  _261
REMARK  103  A    between atoms: _264  and  _266
REMARK  104  A    between atoms: _266  and  _267
REMARK  105  A    between atoms: _266  and  _269
REMARK  106  A    between atoms: _269  and  _270
REMARK  107  A    between atoms: _273  and  _275
REMARK  108  A    between atoms: _275  and  _276
REMARK  109  A    between atoms: _275  and  _278
REMARK  110  A    between atoms: _278  and  _279
REMARK  111  A    between atoms: _282  and  _284
REMARK  112  A    between atoms: _284  and  _285
REMARK  113  A    between atoms: _284  and  _287
REMARK  114  A    between atoms: _287  and  _288
REMARK  115  A    between atoms: _290  and  _292
REMARK  116  A    between atoms: _292  and  _293
REMARK  117  A    between atoms: _292  and  _295
REMARK  118  A    between atoms: _298  and  _300
REMARK  119  A    between atoms: _300  and  _301
REMARK  120  A    between atoms: _300  and  _303
REMARK  121  A    between atoms: _303  and  _304
REMARK  122  A    between atoms: _304  and  _305
REMARK  123  A    between atoms: _305  and  _306
REMARK  124  A    between atoms: _306  and  _307
REMARK  125  A    between atoms: _311  and  _313
REMARK  126  A    between atoms: _313  and  _314
REMARK  127  A    between atoms: _313  and  _316
REMARK  128  A    between atoms: _316  and  _317
REMARK  129  A    between atoms: _328  and  _329
REMARK  130  A    between atoms: _334  and  _336
REMARK  131  A    between atoms: _336  and  _337
REMARK  132  A    between atoms: _336  and  _339
REMARK  133  A    between atoms: _339  and  _340
REMARK  134  A    between atoms: _345  and  _347
REMARK  135  A    between atoms: _347  and  _348
REMARK  136  A    between atoms: _347  and  _350
REMARK  137  A    between atoms: _350  and  _351
REMARK  138  A    between atoms: _354  and  _356
REMARK  139  A    between atoms: _356  and  _357
REMARK  140  A    between atoms: _356  and  _359
REMARK  141  A    between atoms: _362  and  _364
REMARK  142  A    between atoms: _364  and  _365
REMARK  143  A    between atoms: _367  and  _369
REMARK  144  A    between atoms: _369  and  _370
REMARK  145  A    between atoms: _369  and  _372
REMARK  146  A    between atoms: _372  and  _373
REMARK  147  A    between atoms: _373  and  _374
REMARK  148  A    between atoms: _374  and  _375
REMARK  149  A    between atoms: _375  and  _376
REMARK  150  A    between atoms: _380  and  _382
REMARK  151  A    between atoms: _382  and  _383
REMARK  152  A    between atoms: _382  and  _385
REMARK  153  A    between atoms: _385  and  _386
REMARK  154  A    between atoms: _389  and  _391
REMARK  155  A    between atoms: _391  and  _392
REMARK  156  A    between atoms: _395  and  _397
REMARK  157  A    between atoms: _397  and  _398
REMARK  158  A    between atoms: _400  and  _402
REMARK  159  A    between atoms: _402  and  _403
REMARK  160  A    between atoms: _402  and  _405
REMARK  161  A    between atoms: _405  and  _406
REMARK  162  A    between atoms: _409  and  _411
REMARK  163  A    between atoms: _411  and  _412
REMARK  164  A    between atoms: _411  and  _414
REMARK  165  A    between atoms: _414  and  _415
REMARK  166  A    between atoms: _418  and  _420
REMARK  167  A    between atoms: _420  and  _421
REMARK  168  A    between atoms: _424  and  _426
REMARK  169  A    between atoms: _426  and  _427
REMARK  170  A    between atoms: _426  and  _429
REMARK  171  A    between atoms: _429  and  _430
REMARK  172  A    between atoms: _430  and  _431
REMARK  173  A    between atoms: _434  and  _436
REMARK  174  A    between atoms: _436  and  _437
REMARK  175  A    between atoms: _436  and  _439
REMARK  176  A    between atoms: _442  and  _444
REMARK  177  A    between atoms: _444  and  _445
REMARK  178  A    between atoms: _444  and  _447
REMARK  179  A    between atoms: _447  and  _448
REMARK  180  A    between atoms: _451  and  _453
REMARK  181  A    between atoms: _453  and  _454
REMARK  182  A    between atoms: _456  and  _458
REMARK  183  A    between atoms: _458  and  _459
REMARK  184  A    between atoms: _458  and  _461
REMARK  185  A    between atoms: _464  and  _466
REMARK  186  A    between atoms: _466  and  _467
REMARK  187  A    between atoms: _469  and  _471
REMARK  188  A    between atoms: _471  and  _472
REMARK  189  A    between atoms: _471  and  _474
REMARK  190  A    between atoms: _474  and  _475
REMARK  191  A    between atoms: _478  and  _480
REMARK  192  A    between atoms: _480  and  _481
REMARK  193  A    between atoms: _480  and  _483
REMARK  194  A    between atoms: _483  and  _484
REMARK  195  A    between atoms: _489  and  _491
REMARK  196  A    between atoms: _491  and  _492
REMARK  197  A    between atoms: _491  and  _494
REMARK  198  A    between atoms: _497  and  _499
REMARK  199  A    between atoms: _499  and  _500
REMARK  200  A    between atoms: _499  and  _502
REMARK  201  A    between atoms: _502  and  _503
REMARK  202  A    between atoms: _503  and  _504
REMARK  203  A    between atoms: _509  and  _511
REMARK  204  A    between atoms: _511  and  _512
REMARK  205  A    between atoms: _516  and  _517
REMARK  206  A    between atoms: _522  and  _524
REMARK  207  A    between atoms: _524  and  _525
REMARK  208  A    between atoms: _524  and  _527
REMARK  209  A    between atoms: _527  and  _528
REMARK  210  A    between atoms: _528  and  _529
REMARK  211  A    between atoms: _532  and  _534
REMARK  212  A    between atoms: _534  and  _535
REMARK  213  A    between atoms: _534  and  _537
REMARK  214  A    between atoms: _540  and  _542
REMARK  215  A    between atoms: _542  and  _543
REMARK  216  A    between atoms: _542  and  _545
REMARK  217  A    between atoms: _545  and  _546
REMARK  218  A    between atoms: _550  and  _551
REMARK  219  A    between atoms: _556  and  _558
REMARK  220  A    between atoms: _558  and  _559
REMARK  221  A    between atoms: _558  and  _561
REMARK  222  A    between atoms: _561  and  _562
REMARK  223  A    between atoms: _565  and  _567
REMARK  224  A    between atoms: _567  and  _568
REMARK  225  A    between atoms: _571  and  _573
REMARK  226  A    between atoms: _573  and  _574
REMARK  227  A    between atoms: _573  and  _576
REMARK  228  A    between atoms: _576  and  _577
REMARK  229  A    between atoms: _580  and  _582
REMARK  230  A    between atoms: _582  and  _583
REMARK  231  A    between atoms: _582  and  _585
REMARK  232  A    between atoms: _585  and  _586
REMARK  233  A    between atoms: _588  and  _590
REMARK  234  A    between atoms: _590  and  _591
REMARK  235  A    between atoms: _593  and  _595
REMARK  236  A    between atoms: _595  and  _596
REMARK  237  A    between atoms: _595  and  _598
REMARK  238  A    between atoms: _598  and  _599
REMARK  239  A    between atoms: _602  and  _604
REMARK  240  A    between atoms: _604  and  _605
REMARK  241  A    between atoms: _604  and  _607
REMARK                            x       y       z     vdW  Elec       q    Type
REMARK                         _______ _______ _______ _____ _____    ______ ____
ROOT
ATOM      1  O   HOH     1      -9.978  -0.399   6.834  0.00  0.00    +0.000 OA
ENDROOT
TORSDOF 0
REMARK  Name = ../refined-set-2016/4xu1/4xu1_pocket.pdb
REMARK  241 active torsions:
REMARK  status: ('A' for Active; 'I' for Inactive)
REMARK    1  A    between atoms: _1  and  _3
REMARK    2  A    between atoms: _3  and  _4
REMARK    3  A    between atoms: _3  and  _6
REMARK    4  A    between atoms: _6  and  _7
REMARK    5  A    between atoms: _10  and  _12
REMARK    6  A    between atoms: _12  and  _13
REMARK    7  A    between atoms: _15  and  _17
REMARK    8  A    between atoms: _17  and  _18
REMARK    9  A    between atoms: _17  and  _20
REMARK   10  A    between atoms: _20  and  _21
REMARK   11  A    between atoms: _23  and  _25
REMARK   12  A    between atoms: _25  and  _26
REMARK   13  A    between atoms: _25  and  _28
REMARK   14  A    between atoms: _28  and  _29
REMARK   15  A    between atoms: _32  and  _34
REMARK   16  A    between atoms: _34  and  _35
REMARK   17  A    between atoms: _34  and  _37
REMARK   18  A    between atoms: _37  and  _38
REMARK   19  A    between atoms: _43  and  _45
REMARK   20  A    between atoms: _45  and  _46
REMARK   21  A    between atoms: _49  and  _51
REMARK   22  A    between atoms: _51  and  _52
REMARK   23  A    between atoms: _51  and  _54
REMARK   24  A    between atoms: _54  and  _55
REMARK   25  A    between atoms: _58  and  _60
REMARK   26  A    between atoms: _60  and  _61
REMARK   27  A    between atoms: _60  and  _63
REMARK   28  A    between atoms: _63  and  _64
REMARK   29  A    between atoms: _67  and  _69
REMARK   30  A    between atoms: _69  and  _70
REMARK   31  A    between atoms: _69  and  _72
REMARK   32  A    between atoms: _72  and  _73
REMARK   33  A    between atoms: _76  and  _78
REMARK   34  A    between atoms: _78  and  _79
REMARK   35  A    between atoms: _78  and  _81
REMARK   36  A    between atoms: _81  and  _82
REMARK   37  A    between atoms: _85  and  _87
REMARK   38  A    between atoms: _87  and  _88
REMARK   39  A    between atoms: _91  and  _93
REMARK   40  A    between atoms: _93  and  _94
REMARK   41  A    between atoms: _93  and  _96
REMARK   42  A    between atoms: _96  and  _97
REMARK   43  A    between atoms: _97  and  _98
REMARK   44  A    between atoms: _103  and  _105
REMARK   45  A    between atoms: _105  and  _106
REMARK   46  A    between atoms: _105  and  _108
REMARK   47  A    between atoms: _108  and  _109
REMARK   48  A    between atoms: _112  and  _114
REMARK   49  A    between atoms: _114  and  _115
REMARK   50  A    between atoms: _118  and  _120
REMARK   51  A    between atoms: _120  and  _121
REMARK   52  A    between atoms: _123  and  _125
REMARK   53  A    between atoms: _125  and  _126
REMARK   54  A    between atoms: _125  and  _128
REMARK   55  A    between atoms: _128  and  _129
REMARK   56  A    between atoms: _129  and  _130
REMARK   57  A    between atoms: _130  and  _131
REMARK   58  A    between atoms: _140  and  _142
REMARK   59  A    between atoms: _142  and  _143
REMARK   60  A    between atoms: _145  and  _147
REMARK   61  A    between atoms: _147  and  _148
REMARK   62  A    between atoms: _147  and  _150
REMARK   63  A    between atoms: _150  and  _151
REMARK   64  A    between atoms: _151  and  _152
REMARK   65  A    between atoms: _152  and  _153
REMARK   66  A    between atoms: _162  and  _164
REMARK   67  A    between atoms: _164  and  _165
REMARK   68  A    between atoms: _164  and  _167
REMARK   69  A    between atoms: _167  and  _168
REMARK   70  A    between atoms: _173  and  _175
REMARK   71  A    between atoms: _175  and  _176
REMARK   72  A    between atoms: _178  and  _180
REMARK   73  A    between atoms: _180  and  _181
REMARK   74  A    between atoms: _180  and  _183
REMARK   75  A    between atoms: _183  and  _184
REMARK   76  A    between atoms: _184  and  _185
REMARK   77  A    between atoms: _185  and  _186
REMARK   78  A    between atoms: _195  and  _197
REMARK   79  A    between atoms: _197  and  _198
REMARK   80  A    between atoms: _200  and  _202
REMARK   81  A    between atoms: _202  and  _203
REMARK   82  A    between atoms: _202  and  _205
REMARK   83  A    between atoms: _205  and  _206
REMARK   84  A    between atoms: _216  and  _218
REMARK   85  A    between atoms: _218  and  _219
REMARK   86  A    between atoms: _222  and  _224
REMARK   87  A    between atoms: _224  and  _225
REMARK   88  A    between atoms: _228  and  _230
REMARK   89  A    between atoms: _230  and  _231
REMARK   90  A    between atoms: _230  and  _233
REMARK   91  A    between atoms: _233  and  _234
REMARK   92  A    between atoms: _237  and  _239
REMARK   93  A    between atoms: _239  and  _240
REMARK   94  A    between atoms: _243  and  _245
REMARK   95  A    between atoms: _245  and  _246
REMARK   96  A    between atoms: _245  and  _248
REMARK   97  A    between atoms: _248  and  _249
REMARK   98  A    between atoms: _249  and  _250
REMARK   99  A    between atoms: _255  and  _257
REMARK  100  A    between atoms: _257  and  _258
REMARK  101  A    between atoms: _257  and  _260
REMARK  102  A    between atoms: _260  and  _261
REMARK  103  A    between atoms: _264  and  _266
REMARK  104  A    between atoms: _266  and  _267
REMARK  105  A    between atoms: _266  and  _269
REMARK  106  A    between atoms: _269  and  _270
REMARK  107  A    between atoms: _273  and  _275
REMARK  108  A    between atoms: _275  and  _276
REMARK  109  A    between atoms: _275  and  _278
REMARK  110  A    between atoms: _278  and  _279
REMARK  111  A    between atoms: _282  and  _284
REMARK  112  A    between atoms: _284  and  _285
REMARK  113  A    between atoms: _284  and  _287
REMARK  114  A    between atoms: _287  and  _288
REMARK  115  A    between atoms: _290  and  _292
REMARK  116  A    between atoms: _292  and  _293
REMARK  117  A    between atoms: _292  and  _295
REMARK  118  A    between atoms: _298  and  _300
REMARK  119  A    between atoms: _300  and  _301
REMARK  120  A    between atoms: _300  and  _303
REMARK  121  A    between atoms: _303  and  _304
REMARK  122  A    between atoms: _304  and  _305
REMARK  123  A    between atoms: _305  and  _306
REMARK  124  A    between atoms: _306  and  _307
REMARK  125  A    between atoms: _311  and  _313
REMARK  126  A    between atoms: _313  and  _314
REMARK  127  A    between atoms: _313  and  _316
REMARK  128  A    between atoms: _316  and  _317
REMARK  129  A    between atoms: _328  and  _329
REMARK  130  A    between atoms: _334  and  _336
REMARK  131  A    between atoms: _336  and  _337
REMARK  132  A    between atoms: _336  and  _339
REMARK  133  A    between atoms: _339  and  _340
REMARK  134  A    between atoms: _345  and  _347
REMARK  135  A    between atoms: _347  and  _348
REMARK  136  A    between atoms: _347  and  _350
REMARK  137  A    between atoms: _350  and  _351
REMARK  138  A    between atoms: _354  and  _356
REMARK  139  A    between atoms: _356  and  _357
REMARK  140  A    between atoms: _356  and  _359
REMARK  141  A    between atoms: _362  and  _364
REMARK  142  A    between atoms: _364  and  _365
REMARK  143  A    between atoms: _367  and  _369
REMARK  144  A    between atoms: _369  and  _370
REMARK  145  A    between atoms: _369  and  _372
REMARK  146  A    between atoms: _372  and  _373
REMARK  147  A    between atoms: _373  and  _374
REMARK  148  A    between atoms: _374  and  _375
REMARK  149  A    between atoms: _375  and  _376
REMARK  150  A    between atoms: _380  and  _382
REMARK  151  A    between atoms: _382  and  _383
REMARK  152  A    between atoms: _382  and  _385
REMARK  153  A    between atoms: _385  and  _386
REMARK  154  A    between atoms: _389  and  _391
REMARK  155  A    between atoms: _391  and  _392
REMARK  156  A    between atoms: _395  and  _397
REMARK  157  A    between atoms: _397  and  _398
REMARK  158  A    between atoms: _400  and  _402
REMARK  159  A    between atoms: _402  and  _403
REMARK  160  A    between atoms: _402  and  _405
REMARK  161  A    between atoms: _405  and  _406
REMARK  162  A    between atoms: _409  and  _411
REMARK  163  A    between atoms: _411  and  _412
REMARK  164  A    between atoms: _411  and  _414
REMARK  165  A    between atoms: _414  and  _415
REMARK  166  A    between atoms: _418  and  _420
REMARK  167  A    between atoms: _420  and  _421
REMARK  168  A    between atoms: _424  and  _426
REMARK  169  A    between atoms: _426  and  _427
REMARK  170  A    between atoms: _426  and  _429
REMARK  171  A    between atoms: _429  and  _430
REMARK  172  A    between atoms: _430  and  _431
REMARK  173  A    between atoms: _434  and  _436
REMARK  174  A    between atoms: _436  and  _437
REMARK  175  A    between atoms: _436  and  _439
REMARK  176  A    between atoms: _442  and  _444
REMARK  177  A    between atoms: _444  and  _445
REMARK  178  A    between atoms: _444  and  _447
REMARK  179  A    between atoms: _447  and  _448
REMARK  180  A    between atoms: _451  and  _453
REMARK  181  A    between atoms: _453  and  _454
REMARK  182  A    between atoms: _456  and  _458
REMARK  183  A    between atoms: _458  and  _459
REMARK  184  A    between atoms: _458  and  _461
REMARK  185  A    between atoms: _464  and  _466
REMARK  186  A    between atoms: _466  and  _467
REMARK  187  A    between atoms: _469  and  _471
REMARK  188  A    between atoms: _471  and  _472
REMARK  189  A    between atoms: _471  and  _474
REMARK  190  A    between atoms: _474  and  _475
REMARK  191  A    between atoms: _478  and  _480
REMARK  192  A    between atoms: _480  and  _481
REMARK  193  A    between atoms: _480  and  _483
REMARK  194  A    between atoms: _483  and  _484
REMARK  195  A    between atoms: _489  and  _491
REMARK  196  A    between atoms: _491  and  _492
REMARK  197  A    between atoms: _491  and  _494
REMARK  198  A    between atoms: _497  and  _499
REMARK  199  A    between atoms: _499  and  _500
REMARK  200  A    between atoms: _499  and  _502
REMARK  201  A    between atoms: _502  and  _503
REMARK  202  A    between atoms: _503  and  _504
REMARK  203  A    between atoms: _509  and  _511
REMARK  204  A    between atoms: _511  and  _512
REMARK  205  A    between atoms: _516  and  _517
REMARK  206  A    between atoms: _522  and  _524
REMARK  207  A    between atoms: _524  and  _525
REMARK  208  A    between atoms: _524  and  _527
REMARK  209  A    between atoms: _527  and  _528
REMARK  210  A    between atoms: _528  and  _529
REMARK  211  A    between atoms: _532  and  _534
REMARK  212  A    between atoms: _534  and  _535
REMARK  213  A    between atoms: _534  and  _537
REMARK  214  A    between atoms: _540  and  _542
REMARK  215  A    between atoms: _542  and  _543
REMARK  216  A    between atoms: _542  and  _545
REMARK  217  A    between atoms: _545  and  _546
REMARK  218  A    between atoms: _550  and  _551
REMARK  219  A    between atoms: _556  and  _558
REMARK  220  A    between atoms: _558  and  _559
REMARK  221  A    between atoms: _558  and  _561
REMARK  222  A    between atoms: _561  and  _562
REMARK  223  A    between atoms: _565  and  _567
REMARK  224  A    between atoms: _567  and  _568
REMARK  225  A    between atoms: _571  and  _573
REMARK  226  A    between atoms: _573  and  _574
REMARK  227  A    between atoms: _573  and  _576
REMARK  228  A    between atoms: _576  and  _577
REMARK  229  A    between atoms: _580  and  _582
REMARK  230  A    between atoms: _582  and  _583
REMARK  231  A    between atoms: _582  and  _585
REMARK  232  A    between atoms: _585  and  _586
REMARK  233  A    between atoms: _588  and  _590
REMARK  234  A    between atoms: _590  and  _591
REMARK  235  A    between atoms: _593  and  _595
REMARK  236  A    between atoms: _595  and  _596
REMARK  237  A    between atoms: _595  and  _598
REMARK  238  A    between atoms: _598  and  _599
REMARK  239  A    between atoms: _602  and  _604
REMARK  240  A    between atoms: _604  and  _605
REMARK  241  A    between atoms: _604  and  _607
REMARK                            x       y       z     vdW  Elec       q    Type
REMARK                         _______ _______ _______ _____ _____    ______ ____
ROOT
ATOM      1  O   HOH     1      -6.400 -13.006   6.036  0.00  0.00    +0.000 OA
ENDROOT
TORSDOF 0
REMARK  Name = ../refined-set-2016/4xu1/4xu1_pocket.pdb
REMARK  241 active torsions:
REMARK  status: ('A' for Active; 'I' for Inactive)
REMARK    1  A    between atoms: _1  and  _3
REMARK    2  A    between atoms: _3  and  _4
REMARK    3  A    between atoms: _3  and  _6
REMARK    4  A    between atoms: _6  and  _7
REMARK    5  A    between atoms: _10  and  _12
REMARK    6  A    between atoms: _12  and  _13
REMARK    7  A    between atoms: _15  and  _17
REMARK    8  A    between atoms: _17  and  _18
REMARK    9  A    between atoms: _17  and  _20
REMARK   10  A    between atoms: _20  and  _21
REMARK   11  A    between atoms: _23  and  _25
REMARK   12  A    between atoms: _25  and  _26
REMARK   13  A    between atoms: _25  and  _28
REMARK   14  A    between atoms: _28  and  _29
REMARK   15  A    between atoms: _32  and  _34
REMARK   16  A    between atoms: _34  and  _35
REMARK   17  A    between atoms: _34  and  _37
REMARK   18  A    between atoms: _37  and  _38
REMARK   19  A    between atoms: _43  and  _45
REMARK   20  A    between atoms: _45  and  _46
REMARK   21  A    between atoms: _49  and  _51
REMARK   22  A    between atoms: _51  and  _52
REMARK   23  A    between atoms: _51  and  _54
REMARK   24  A    between atoms: _54  and  _55
REMARK   25  A    between atoms: _58  and  _60
REMARK   26  A    between atoms: _60  and  _61
REMARK   27  A    between atoms: _60  and  _63
REMARK   28  A    between atoms: _63  and  _64
REMARK   29  A    between atoms: _67  and  _69
REMARK   30  A    between atoms: _69  and  _70
REMARK   31  A    between atoms: _69  and  _72
REMARK   32  A    between atoms: _72  and  _73
REMARK   33  A    between atoms: _76  and  _78
REMARK   34  A    between atoms: _78  and  _79
REMARK   35  A    between atoms: _78  and  _81
REMARK   36  A    between atoms: _81  and  _82
REMARK   37  A    between atoms: _85  and  _87
REMARK   38  A    between atoms: _87  and  _88
REMARK   39  A    between atoms: _91  and  _93
REMARK   40  A    between atoms: _93  and  _94
REMARK   41  A    between atoms: _93  and  _96
REMARK   42  A    between atoms: _96  and  _97
REMARK   43  A    between atoms: _97  and  _98
REMARK   44  A    between atoms: _103  and  _105
REMARK   45  A    between atoms: _105  and  _106
REMARK   46  A    between atoms: _105  and  _108
REMARK   47  A    between atoms: _108  and  _109
REMARK   48  A    between atoms: _112  and  _114
REMARK   49  A    between atoms: _114  and  _115
REMARK   50  A    between atoms: _118  and  _120
REMARK   51  A    between atoms: _120  and  _121
REMARK   52  A    between atoms: _123  and  _125
REMARK   53  A    between atoms: _125  and  _126
REMARK   54  A    between atoms: _125  and  _128
REMARK   55  A    between atoms: _128  and  _129
REMARK   56  A    between atoms: _129  and  _130
REMARK   57  A    between atoms: _130  and  _131
REMARK   58  A    between atoms: _140  and  _142
REMARK   59  A    between atoms: _142  and  _143
REMARK   60  A    between atoms: _145  and  _147
REMARK   61  A    between atoms: _147  and  _148
REMARK   62  A    between atoms: _147  and  _150
REMARK   63  A    between atoms: _150  and  _151
REMARK   64  A    between atoms: _151  and  _152
REMARK   65  A    between atoms: _152  and  _153
REMARK   66  A    between atoms: _162  and  _164
REMARK   67  A    between atoms: _164  and  _165
REMARK   68  A    between atoms: _164  and  _167
REMARK   69  A    between atoms: _167  and  _168
REMARK   70  A    between atoms: _173  and  _175
REMARK   71  A    between atoms: _175  and  _176
REMARK   72  A    between atoms: _178  and  _180
REMARK   73  A    between atoms: _180  and  _181
REMARK   74  A    between atoms: _180  and  _183
REMARK   75  A    between atoms: _183  and  _184
REMARK   76  A    between atoms: _184  and  _185
REMARK   77  A    between atoms: _185  and  _186
REMARK   78  A    between atoms: _195  and  _197
REMARK   79  A    between atoms: _197  and  _198
REMARK   80  A    between atoms: _200  and  _202
REMARK   81  A    between atoms: _202  and  _203
REMARK   82  A    between atoms: _202  and  _205
REMARK   83  A    between atoms: _205  and  _206
REMARK   84  A    between atoms: _216  and  _218
REMARK   85  A    between atoms: _218  and  _219
REMARK   86  A    between atoms: _222  and  _224
REMARK   87  A    between atoms: _224  and  _225
REMARK   88  A    between atoms: _228  and  _230
REMARK   89  A    between atoms: _230  and  _231
REMARK   90  A    between atoms: _230  and  _233
REMARK   91  A    between atoms: _233  and  _234
REMARK   92  A    between atoms: _237  and  _239
REMARK   93  A    between atoms: _239  and  _240
REMARK   94  A    between atoms: _243  and  _245
REMARK   95  A    between atoms: _245  and  _246
REMARK   96  A    between atoms: _245  and  _248
REMARK   97  A    between atoms: _248  and  _249
REMARK   98  A    between atoms: _249  and  _250
REMARK   99  A    between atoms: _255  and  _257
REMARK  100  A    between atoms: _257  and  _258
REMARK  101  A    between atoms: _257  and  _260
REMARK  102  A    between atoms: _260  and  _261
REMARK  103  A    between atoms: _264  and  _266
REMARK  104  A    between atoms: _266  and  _267
REMARK  105  A    between atoms: _266  and  _269
REMARK  106  A    between atoms: _269  and  _270
REMARK  107  A    between atoms: _273  and  _275
REMARK  108  A    between atoms: _275  and  _276
REMARK  109  A    between atoms: _275  and  _278
REMARK  110  A    between atoms: _278  and  _279
REMARK  111  A    between atoms: _282  and  _284
REMARK  112  A    between atoms: _284  and  _285
REMARK  113  A    between atoms: _284  and  _287
REMARK  114  A    between atoms: _287  and  _288
REMARK  115  A    between atoms: _290  and  _292
REMARK  116  A    between atoms: _292  and  _293
REMARK  117  A    between atoms: _292  and  _295
REMARK  118  A    between atoms: _298  and  _300
REMARK  119  A    between atoms: _300  and  _301
REMARK  120  A    between atoms: _300  and  _303
REMARK  121  A    between atoms: _303  and  _304
REMARK  122  A    between atoms: _304  and  _305
REMARK  123  A    between atoms: _305  and  _306
REMARK  124  A    between atoms: _306  and  _307
REMARK  125  A    between atoms: _311  and  _313
REMARK  126  A    between atoms: _313  and  _314
REMARK  127  A    between atoms: _313  and  _316
REMARK  128  A    between atoms: _316  and  _317
REMARK  129  A    between atoms: _328  and  _329
REMARK  130  A    between atoms: _334  and  _336
REMARK  131  A    between atoms: _336  and  _337
REMARK  132  A    between atoms: _336  and  _339
REMARK  133  A    between atoms: _339  and  _340
REMARK  134  A    between atoms: _345  and  _347
REMARK  135  A    between atoms: _347  and  _348
REMARK  136  A    between atoms: _347  and  _350
REMARK  137  A    between atoms: _350  and  _351
REMARK  138  A    between atoms: _354  and  _356
REMARK  139  A    between atoms: _356  and  _357
REMARK  140  A    between atoms: _356  and  _359
REMARK  141  A    between atoms: _362  and  _364
REMARK  142  A    between atoms: _364  and  _365
REMARK  143  A    between atoms: _367  and  _369
REMARK  144  A    between atoms: _369  and  _370
REMARK  145  A    between atoms: _369  and  _372
REMARK  146  A    between atoms: _372  and  _373
REMARK  147  A    between atoms: _373  and  _374
REMARK  148  A    between atoms: _374  and  _375
REMARK  149  A    between atoms: _375  and  _376
REMARK  150  A    between atoms: _380  and  _382
REMARK  151  A    between atoms: _382  and  _383
REMARK  152  A    between atoms: _382  and  _385
REMARK  153  A    between atoms: _385  and  _386
REMARK  154  A    between atoms: _389  and  _391
REMARK  155  A    between atoms: _391  and  _392
REMARK  156  A    between atoms: _395  and  _397
REMARK  157  A    between atoms: _397  and  _398
REMARK  158  A    between atoms: _400  and  _402
REMARK  159  A    between atoms: _402  and  _403
REMARK  160  A    between atoms: _402  and  _405
REMARK  161  A    between atoms: _405  and  _406
REMARK  162  A    between atoms: _409  and  _411
REMARK  163  A    between atoms: _411  and  _412
REMARK  164  A    between atoms: _411  and  _414
REMARK  165  A    between atoms: _414  and  _415
REMARK  166  A    between atoms: _418  and  _420
REMARK  167  A    between atoms: _420  and  _421
REMARK  168  A    between atoms: _424  and  _426
REMARK  169  A    between atoms: _426  and  _427
REMARK  170  A    between atoms: _426  and  _429
REMARK  171  A    between atoms: _429  and  _430
REMARK  172  A    between atoms: _430  and  _431
REMARK  173  A    between atoms: _434  and  _436
REMARK  174  A    between atoms: _436  and  _437
REMARK  175  A    between atoms: _436  and  _439
REMARK  176  A    between atoms: _442  and  _444
REMARK  177  A    between atoms: _444  and  _445
REMARK  178  A    between atoms: _444  and  _447
REMARK  179  A    between atoms: _447  and  _448
REMARK  180  A    between atoms: _451  and  _453
REMARK  181  A    between atoms: _453  and  _454
REMARK  182  A    between atoms: _456  and  _458
REMARK  183  A    between atoms: _458  and  _459
REMARK  184  A    between atoms: _458  and  _461
REMARK  185  A    between atoms: _464  and  _466
REMARK  186  A    between atoms: _466  and  _467
REMARK  187  A    between atoms: _469  and  _471
REMARK  188  A    between atoms: _471  and  _472
REMARK  189  A    between atoms: _471  and  _474
REMARK  190  A    between atoms: _474  and  _475
REMARK  191  A    between atoms: _478  and  _480
REMARK  192  A    between atoms: _480  and  _481
REMARK  193  A    between atoms: _480  and  _483
REMARK  194  A    between atoms: _483  and  _484
REMARK  195  A    between atoms: _489  and  _491
REMARK  196  A    between atoms: _491  and  _492
REMARK  197  A    between atoms: _491  and  _494
REMARK  198  A    between atoms: _497  and  _499
REMARK  199  A    between atoms: _499  and  _500
REMARK  200  A    between atoms: _499  and  _502
REMARK  201  A    between atoms: _502  and  _503
REMARK  202  A    between atoms: _503  and  _504
REMARK  203  A    between atoms: _509  and  _511
REMARK  204  A    between atoms: _511  and  _512
REMARK  205  A    between atoms: _516  and  _517
REMARK  206  A    between atoms: _522  and  _524
REMARK  207  A    between atoms: _524  and  _525
REMARK  208  A    between atoms: _524  and  _527
REMARK  209  A    between atoms: _527  and  _528
REMARK  210  A    between atoms: _528  and  _529
REMARK  211  A    between atoms: _532  and  _534
REMARK  212  A    between atoms: _534  and  _535
REMARK  213  A    between atoms: _534  and  _537
REMARK  214  A    between atoms: _540  and  _542
REMARK  215  A    between atoms: _542  and  _543
REMARK  216  A    between atoms: _542  and  _545
REMARK  217  A    between atoms: _545  and  _546
REMARK  218  A    between atoms: _550  and  _551
REMARK  219  A    between atoms: _556  and  _558
REMARK  220  A    between atoms: _558  and  _559
REMARK  221  A    between atoms: _558  and  _561
REMARK  222  A    between atoms: _561  and  _562
REMARK  223  A    between atoms: _565  and  _567
REMARK  224  A    between atoms: _567  and  _568
REMARK  225  A    between atoms: _571  and  _573
REMARK  226  A    between atoms: _573  and  _574
REMARK  227  A    between atoms: _573  and  _576
REMARK  228  A    between atoms: _576  and  _577
REMARK  229  A    between atoms: _580  and  _582
REMARK  230  A    between atoms: _582  and  _583
REMARK  231  A    between atoms: _582  and  _585
REMARK  232  A    between atoms: _585  and  _586
REMARK  233  A    between atoms: _588  and  _590
REMARK  234  A    between atoms: _590  and  _591
REMARK  235  A    between atoms: _593  and  _595
REMARK  236  A    between atoms: _595  and  _596
REMARK  237  A    between atoms: _595  and  _598
REMARK  238  A    between atoms: _598  and  _599
REMARK  239  A    between atoms: _602  and  _604
REMARK  240  A    between atoms: _604  and  _605
REMARK  241  A    between atoms: _604  and  _607
REMARK                            x       y       z     vdW  Elec       q    Type
REMARK                         _______ _______ _______ _____ _____    ______ ____
ROOT
ATOM      1  O   HOH     1      -0.140 -11.136   3.614  0.00  0.00    +0.000 OA
ENDROOT
TORSDOF 0
REMARK  Name = ../refined-set-2016/4xu1/4xu1_pocket.pdb
REMARK  241 active torsions:
REMARK  status: ('A' for Active; 'I' for Inactive)
REMARK    1  A    between atoms: _1  and  _3
REMARK    2  A    between atoms: _3  and  _4
REMARK    3  A    between atoms: _3  and  _6
REMARK    4  A    between atoms: _6  and  _7
REMARK    5  A    between atoms: _10  and  _12
REMARK    6  A    between atoms: _12  and  _13
REMARK    7  A    between atoms: _15  and  _17
REMARK    8  A    between atoms: _17  and  _18
REMARK    9  A    between atoms: _17  and  _20
REMARK   10  A    between atoms: _20  and  _21
REMARK   11  A    between atoms: _23  and  _25
REMARK   12  A    between atoms: _25  and  _26
REMARK   13  A    between atoms: _25  and  _28
REMARK   14  A    between atoms: _28  and  _29
REMARK   15  A    between atoms: _32  and  _34
REMARK   16  A    between atoms: _34  and  _35
REMARK   17  A    between atoms: _34  and  _37
REMARK   18  A    between atoms: _37  and  _38
REMARK   19  A    between atoms: _43  and  _45
REMARK   20  A    between atoms: _45  and  _46
REMARK   21  A    between atoms: _49  and  _51
REMARK   22  A    between atoms: _51  and  _52
REMARK   23  A    between atoms: _51  and  _54
REMARK   24  A    between atoms: _54  and  _55
REMARK   25  A    between atoms: _58  and  _60
REMARK   26  A    between atoms: _60  and  _61
REMARK   27  A    between atoms: _60  and  _63
REMARK   28  A    between atoms: _63  and  _64
REMARK   29  A    between atoms: _67  and  _69
REMARK   30  A    between atoms: _69  and  _70
REMARK   31  A    between atoms: _69  and  _72
REMARK   32  A    between atoms: _72  and  _73
REMARK   33  A    between atoms: _76  and  _78
REMARK   34  A    between atoms: _78  and  _79
REMARK   35  A    between atoms: _78  and  _81
REMARK   36  A    between atoms: _81  and  _82
REMARK   37  A    between atoms: _85  and  _87
REMARK   38  A    between atoms: _87  and  _88
REMARK   39  A    between atoms: _91  and  _93
REMARK   40  A    between atoms: _93  and  _94
REMARK   41  A    between atoms: _93  and  _96
REMARK   42  A    between atoms: _96  and  _97
REMARK   43  A    between atoms: _97  and  _98
REMARK   44  A    between atoms: _103  and  _105
REMARK   45  A    between atoms: _105  and  _106
REMARK   46  A    between atoms: _105  and  _108
REMARK   47  A    between atoms: _108  and  _109
REMARK   48  A    between atoms: _112  and  _114
REMARK   49  A    between atoms: _114  and  _115
REMARK   50  A    between atoms: _118  and  _120
REMARK   51  A    between atoms: _120  and  _121
REMARK   52  A    between atoms: _123  and  _125
REMARK   53  A    between atoms: _125  and  _126
REMARK   54  A    between atoms: _125  and  _128
REMARK   55  A    between atoms: _128  and  _129
REMARK   56  A    between atoms: _129  and  _130
REMARK   57  A    between atoms: _130  and  _131
REMARK   58  A    between atoms: _140  and  _142
REMARK   59  A    between atoms: _142  and  _143
REMARK   60  A    between atoms: _145  and  _147
REMARK   61  A    between atoms: _147  and  _148
REMARK   62  A    between atoms: _147  and  _150
REMARK   63  A    between atoms: _150  and  _151
REMARK   64  A    between atoms: _151  and  _152
REMARK   65  A    between atoms: _152  and  _153
REMARK   66  A    between atoms: _162  and  _164
REMARK   67  A    between atoms: _164  and  _165
REMARK   68  A    between atoms: _164  and  _167
REMARK   69  A    between atoms: _167  and  _168
REMARK   70  A    between atoms: _173  and  _175
REMARK   71  A    between atoms: _175  and  _176
REMARK   72  A    between atoms: _178  and  _180
REMARK   73  A    between atoms: _180  and  _181
REMARK   74  A    between atoms: _180  and  _183
REMARK   75  A    between atoms: _183  and  _184
REMARK   76  A    between atoms: _184  and  _185
REMARK   77  A    between atoms: _185  and  _186
REMARK   78  A    between atoms: _195  and  _197
REMARK   79  A    between atoms: _197  and  _198
REMARK   80  A    between atoms: _200  and  _202
REMARK   81  A    between atoms: _202  and  _203
REMARK   82  A    between atoms: _202  and  _205
REMARK   83  A    between atoms: _205  and  _206
REMARK   84  A    between atoms: _216  and  _218
REMARK   85  A    between atoms: _218  and  _219
REMARK   86  A    between atoms: _222  and  _224
REMARK   87  A    between atoms: _224  and  _225
REMARK   88  A    between atoms: _228  and  _230
REMARK   89  A    between atoms: _230  and  _231
REMARK   90  A    between atoms: _230  and  _233
REMARK   91  A    between atoms: _233  and  _234
REMARK   92  A    between atoms: _237  and  _239
REMARK   93  A    between atoms: _239  and  _240
REMARK   94  A    between atoms: _243  and  _245
REMARK   95  A    between atoms: _245  and  _246
REMARK   96  A    between atoms: _245  and  _248
REMARK   97  A    between atoms: _248  and  _249
REMARK   98  A    between atoms: _249  and  _250
REMARK   99  A    between atoms: _255  and  _257
REMARK  100  A    between atoms: _257  and  _258
REMARK  101  A    between atoms: _257  and  _260
REMARK  102  A    between atoms: _260  and  _261
REMARK  103  A    between atoms: _264  and  _266
REMARK  104  A    between atoms: _266  and  _267
REMARK  105  A    between atoms: _266  and  _269
REMARK  106  A    between atoms: _269  and  _270
REMARK  107  A    between atoms: _273  and  _275
REMARK  108  A    between atoms: _275  and  _276
REMARK  109  A    between atoms: _275  and  _278
REMARK  110  A    between atoms: _278  and  _279
REMARK  111  A    between atoms: _282  and  _284
REMARK  112  A    between atoms: _284  and  _285
REMARK  113  A    between atoms: _284  and  _287
REMARK  114  A    between atoms: _287  and  _288
REMARK  115  A    between atoms: _290  and  _292
REMARK  116  A    between atoms: _292  and  _293
REMARK  117  A    between atoms: _292  and  _295
REMARK  118  A    between atoms: _298  and  _300
REMARK  119  A    between atoms: _300  and  _301
REMARK  120  A    between atoms: _300  and  _303
REMARK  121  A    between atoms: _303  and  _304
REMARK  122  A    between atoms: _304  and  _305
REMARK  123  A    between atoms: _305  and  _306
REMARK  124  A    between atoms: _306  and  _307
REMARK  125  A    between atoms: _311  and  _313
REMARK  126  A    between atoms: _313  and  _314
REMARK  127  A    between atoms: _313  and  _316
REMARK  128  A    between atoms: _316  and  _317
REMARK  129  A    between atoms: _328  and  _329
REMARK  130  A    between atoms: _334  and  _336
REMARK  131  A    between atoms: _336  and  _337
REMARK  132  A    between atoms: _336  and  _339
REMARK  133  A    between atoms: _339  and  _340
REMARK  134  A    between atoms: _345  and  _347
REMARK  135  A    between atoms: _347  and  _348
REMARK  136  A    between atoms: _347  and  _350
REMARK  137  A    between atoms: _350  and  _351
REMARK  138  A    between atoms: _354  and  _356
REMARK  139  A    between atoms: _356  and  _357
REMARK  140  A    between atoms: _356  and  _359
REMARK  141  A    between atoms: _362  and  _364
REMARK  142  A    between atoms: _364  and  _365
REMARK  143  A    between atoms: _367  and  _369
REMARK  144  A    between atoms: _369  and  _370
REMARK  145  A    between atoms: _369  and  _372
REMARK  146  A    between atoms: _372  and  _373
REMARK  147  A    between atoms: _373  and  _374
REMARK  148  A    between atoms: _374  and  _375
REMARK  149  A    between atoms: _375  and  _376
REMARK  150  A    between atoms: _380  and  _382
REMARK  151  A    between atoms: _382  and  _383
REMARK  152  A    between atoms: _382  and  _385
REMARK  153  A    between atoms: _385  and  _386
REMARK  154  A    between atoms: _389  and  _391
REMARK  155  A    between atoms: _391  and  _392
REMARK  156  A    between atoms: _395  and  _397
REMARK  157  A    between atoms: _397  and  _398
REMARK  158  A    between atoms: _400  and  _402
REMARK  159  A    between atoms: _402  and  _403
REMARK  160  A    between atoms: _402  and  _405
REMARK  161  A    between atoms: _405  and  _406
REMARK  162  A    between atoms: _409  and  _411
REMARK  163  A    between atoms: _411  and  _412
REMARK  164  A    between atoms: _411  and  _414
REMARK  165  A    between atoms: _414  and  _415
REMARK  166  A    between atoms: _418  and  _420
REMARK  167  A    between atoms: _420  and  _421
REMARK  168  A    between atoms: _424  and  _426
REMARK  169  A    between atoms: _426  and  _427
REMARK  170  A    between atoms: _426  and  _429
REMARK  171  A    between atoms: _429  and  _430
REMARK  172  A    between atoms: _430  and  _431
REMARK  173  A    between atoms: _434  and  _436
REMARK  174  A    between atoms: _436  and  _437
REMARK  175  A    between atoms: _436  and  _439
REMARK  176  A    between atoms: _442  and  _444
REMARK  177  A    between atoms: _444  and  _445
REMARK  178  A    between atoms: _444  and  _447
REMARK  179  A    between atoms: _447  and  _448
REMARK  180  A    between atoms: _451  and  _453
REMARK  181  A    between atoms: _453  and  _454
REMARK  182  A    between atoms: _456  and  _458
REMARK  183  A    between atoms: _458  and  _459
REMARK  184  A    between atoms: _458  and  _461
REMARK  185  A    between atoms: _464  and  _466
REMARK  186  A    between atoms: _466  and  _467
REMARK  187  A    between atoms: _469  and  _471
REMARK  188  A    between atoms: _471  and  _472
REMARK  189  A    between atoms: _471  and  _474
REMARK  190  A    between atoms: _474  and  _475
REMARK  191  A    between atoms: _478  and  _480
REMARK  192  A    between atoms: _480  and  _481
REMARK  193  A    between atoms: _480  and  _483
REMARK  194  A    between atoms: _483  and  _484
REMARK  195  A    between atoms: _489  and  _491
REMARK  196  A    between atoms: _491  and  _492
REMARK  197  A    between atoms: _491  and  _494
REMARK  198  A    between atoms: _497  and  _499
REMARK  199  A    between atoms: _499  and  _500
REMARK  200  A    between atoms: _499  and  _502
REMARK  201  A    between atoms: _502  and  _503
REMARK  202  A    between atoms: _503  and  _504
REMARK  203  A    between atoms: _509  and  _511
REMARK  204  A    between atoms: _511  and  _512
REMARK  205  A    between atoms: _516  and  _517
REMARK  206  A    between atoms: _522  and  _524
REMARK  207  A    between atoms: _524  and  _525
REMARK  208  A    between atoms: _524  and  _527
REMARK  209  A    between atoms: _527  and  _528
REMARK  210  A    between atoms: _528  and  _529
REMARK  211  A    between atoms: _532  and  _534
REMARK  212  A    between atoms: _534  and  _535
REMARK  213  A    between atoms: _534  and  _537
REMARK  214  A    between atoms: _540  and  _542
REMARK  215  A    between atoms: _542  and  _543
REMARK  216  A    between atoms: _542  and  _545
REMARK  217  A    between atoms: _545  and  _546
REMARK  218  A    between atoms: _550  and  _551
REMARK  219  A    between atoms: _556  and  _558
REMARK  220  A    between atoms: _558  and  _559
REMARK  221  A    between atoms: _558  and  _561
REMARK  222  A    between atoms: _561  and  _562
REMARK  223  A    between atoms: _565  and  _567
REMARK  224  A    between atoms: _567  and  _568
REMARK  225  A    between atoms: _571  and  _573
REMARK  226  A    between atoms: _573  and  _574
REMARK  227  A    between atoms: _573  and  _576
REMARK  228  A    between atoms: _576  and  _577
REMARK  229  A    between atoms: _580  and  _582
REMARK  230  A    between atoms: _582  and  _583
REMARK  231  A    between atoms: _582  and  _585
REMARK  232  A    between atoms: _585  and  _586
REMARK  233  A    between atoms: _588  and  _590
REMARK  234  A    between atoms: _590  and  _591
REMARK  235  A    between atoms: _593  and  _595
REMARK  236  A    between atoms: _595  and  _596
REMARK  237  A    between atoms: _595  and  _598
REMARK  238  A    between atoms: _598  and  _599
REMARK  239  A    between atoms: _602  and  _604
REMARK  240  A    between atoms: _604  and  _605
REMARK  241  A    between atoms: _604  and  _607
REMARK                            x       y       z     vdW  Elec       q    Type
REMARK                         _______ _______ _______ _____ _____    ______ ____
ROOT
ATOM      1  O   HOH     1       6.335  -7.803  14.840  0.00  0.00    +0.000 OA
ENDROOT
TORSDOF 0
REMARK  Name = ../refined-set-2016/4xu1/4xu1_pocket.pdb
REMARK  241 active torsions:
REMARK  status: ('A' for Active; 'I' for Inactive)
REMARK    1  A    between atoms: _1  and  _3
REMARK    2  A    between atoms: _3  and  _4
REMARK    3  A    between atoms: _3  and  _6
REMARK    4  A    between atoms: _6  and  _7
REMARK    5  A    between atoms: _10  and  _12
REMARK    6  A    between atoms: _12  and  _13
REMARK    7  A    between atoms: _15  and  _17
REMARK    8  A    between atoms: _17  and  _18
REMARK    9  A    between atoms: _17  and  _20
REMARK   10  A    between atoms: _20  and  _21
REMARK   11  A    between atoms: _23  and  _25
REMARK   12  A    between atoms: _25  and  _26
REMARK   13  A    between atoms: _25  and  _28
REMARK   14  A    between atoms: _28  and  _29
REMARK   15  A    between atoms: _32  and  _34
REMARK   16  A    between atoms: _34  and  _35
REMARK   17  A    between atoms: _34  and  _37
REMARK   18  A    between atoms: _37  and  _38
REMARK   19  A    between atoms: _43  and  _45
REMARK   20  A    between atoms: _45  and  _46
REMARK   21  A    between atoms: _49  and  _51
REMARK   22  A    between atoms: _51  and  _52
REMARK   23  A    between atoms: _51  and  _54
REMARK   24  A    between atoms: _54  and  _55
REMARK   25  A    between atoms: _58  and  _60
REMARK   26  A    between atoms: _60  and  _61
REMARK   27  A    between atoms: _60  and  _63
REMARK   28  A    between atoms: _63  and  _64
REMARK   29  A    between atoms: _67  and  _69
REMARK   30  A    between atoms: _69  and  _70
REMARK   31  A    between atoms: _69  and  _72
REMARK   32  A    between atoms: _72  and  _73
REMARK   33  A    between atoms: _76  and  _78
REMARK   34  A    between atoms: _78  and  _79
REMARK   35  A    between atoms: _78  and  _81
REMARK   36  A    between atoms: _81  and  _82
REMARK   37  A    between atoms: _85  and  _87
REMARK   38  A    between atoms: _87  and  _88
REMARK   39  A    between atoms: _91  and  _93
REMARK   40  A    between atoms: _93  and  _94
REMARK   41  A    between atoms: _93  and  _96
REMARK   42  A    between atoms: _96  and  _97
REMARK   43  A    between atoms: _97  and  _98
REMARK   44  A    between atoms: _103  and  _105
REMARK   45  A    between atoms: _105  and  _106
REMARK   46  A    between atoms: _105  and  _108
REMARK   47  A    between atoms: _108  and  _109
REMARK   48  A    between atoms: _112  and  _114
REMARK   49  A    between atoms: _114  and  _115
REMARK   50  A    between atoms: _118  and  _120
REMARK   51  A    between atoms: _120  and  _121
REMARK   52  A    between atoms: _123  and  _125
REMARK   53  A    between atoms: _125  and  _126
REMARK   54  A    between atoms: _125  and  _128
REMARK   55  A    between atoms: _128  and  _129
REMARK   56  A    between atoms: _129  and  _130
REMARK   57  A    between atoms: _130  and  _131
REMARK   58  A    between atoms: _140  and  _142
REMARK   59  A    between atoms: _142  and  _143
REMARK   60  A    between atoms: _145  and  _147
REMARK   61  A    between atoms: _147  and  _148
REMARK   62  A    between atoms: _147  and  _150
REMARK   63  A    between atoms: _150  and  _151
REMARK   64  A    between atoms: _151  and  _152
REMARK   65  A    between atoms: _152  and  _153
REMARK   66  A    between atoms: _162  and  _164
REMARK   67  A    between atoms: _164  and  _165
REMARK   68  A    between atoms: _164  and  _167
REMARK   69  A    between atoms: _167  and  _168
REMARK   70  A    between atoms: _173  and  _175
REMARK   71  A    between atoms: _175  and  _176
REMARK   72  A    between atoms: _178  and  _180
REMARK   73  A    between atoms: _180  and  _181
REMARK   74  A    between atoms: _180  and  _183
REMARK   75  A    between atoms: _183  and  _184
REMARK   76  A    between atoms: _184  and  _185
REMARK   77  A    between atoms: _185  and  _186
REMARK   78  A    between atoms: _195  and  _197
REMARK   79  A    between atoms: _197  and  _198
REMARK   80  A    between atoms: _200  and  _202
REMARK   81  A    between atoms: _202  and  _203
REMARK   82  A    between atoms: _202  and  _205
REMARK   83  A    between atoms: _205  and  _206
REMARK   84  A    between atoms: _216  and  _218
REMARK   85  A    between atoms: _218  and  _219
REMARK   86  A    between atoms: _222  and  _224
REMARK   87  A    between atoms: _224  and  _225
REMARK   88  A    between atoms: _228  and  _230
REMARK   89  A    between atoms: _230  and  _231
REMARK   90  A    between atoms: _230  and  _233
REMARK   91  A    between atoms: _233  and  _234
REMARK   92  A    between atoms: _237  and  _239
REMARK   93  A    between atoms: _239  and  _240
REMARK   94  A    between atoms: _243  and  _245
REMARK   95  A    between atoms: _245  and  _246
REMARK   96  A    between atoms: _245  and  _248
REMARK   97  A    between atoms: _248  and  _249
REMARK   98  A    between atoms: _249  and  _250
REMARK   99  A    between atoms: _255  and  _257
REMARK  100  A    between atoms: _257  and  _258
REMARK  101  A    between atoms: _257  and  _260
REMARK  102  A    between atoms: _260  and  _261
REMARK  103  A    between atoms: _264  and  _266
REMARK  104  A    between atoms: _266  and  _267
REMARK  105  A    between atoms: _266  and  _269
REMARK  106  A    between atoms: _269  and  _270
REMARK  107  A    between atoms: _273  and  _275
REMARK  108  A    between atoms: _275  and  _276
REMARK  109  A    between atoms: _275  and  _278
REMARK  110  A    between atoms: _278  and  _279
REMARK  111  A    between atoms: _282  and  _284
REMARK  112  A    between atoms: _284  and  _285
REMARK  113  A    between atoms: _284  and  _287
REMARK  114  A    between atoms: _287  and  _288
REMARK  115  A    between atoms: _290  and  _292
REMARK  116  A    between atoms: _292  and  _293
REMARK  117  A    between atoms: _292  and  _295
REMARK  118  A    between atoms: _298  and  _300
REMARK  119  A    between atoms: _300  and  _301
REMARK  120  A    between atoms: _300  and  _303
REMARK  121  A    between atoms: _303  and  _304
REMARK  122  A    between atoms: _304  and  _305
REMARK  123  A    between atoms: _305  and  _306
REMARK  124  A    between atoms: _306  and  _307
REMARK  125  A    between atoms: _311  and  _313
REMARK  126  A    between atoms: _313  and  _314
REMARK  127  A    between atoms: _313  and  _316
REMARK  128  A    between atoms: _316  and  _317
REMARK  129  A    between atoms: _328  and  _329
REMARK  130  A    between atoms: _334  and  _336
REMARK  131  A    between atoms: _336  and  _337
REMARK  132  A    between atoms: _336  and  _339
REMARK  133  A    between atoms: _339  and  _340
REMARK  134  A    between atoms: _345  and  _347
REMARK  135  A    between atoms: _347  and  _348
REMARK  136  A    between atoms: _347  and  _350
REMARK  137  A    between atoms: _350  and  _351
REMARK  138  A    between atoms: _354  and  _356
REMARK  139  A    between atoms: _356  and  _357
REMARK  140  A    between atoms: _356  and  _359
REMARK  141  A    between atoms: _362  and  _364
REMARK  142  A    between atoms: _364  and  _365
REMARK  143  A    between atoms: _367  and  _369
REMARK  144  A    between atoms: _369  and  _370
REMARK  145  A    between atoms: _369  and  _372
REMARK  146  A    between atoms: _372  and  _373
REMARK  147  A    between atoms: _373  and  _374
REMARK  148  A    between atoms: _374  and  _375
REMARK  149  A    between atoms: _375  and  _376
REMARK  150  A    between atoms: _380  and  _382
REMARK  151  A    between atoms: _382  and  _383
REMARK  152  A    between atoms: _382  and  _385
REMARK  153  A    between atoms: _385  and  _386
REMARK  154  A    between atoms: _389  and  _391
REMARK  155  A    between atoms: _391  and  _392
REMARK  156  A    between atoms: _395  and  _397
REMARK  157  A    between atoms: _397  and  _398
REMARK  158  A    between atoms: _400  and  _402
REMARK  159  A    between atoms: _402  and  _403
REMARK  160  A    between atoms: _402  and  _405
REMARK  161  A    between atoms: _405  and  _406
REMARK  162  A    between atoms: _409  and  _411
REMARK  163  A    between atoms: _411  and  _412
REMARK  164  A    between atoms: _411  and  _414
REMARK  165  A    between atoms: _414  and  _415
REMARK  166  A    between atoms: _418  and  _420
REMARK  167  A    between atoms: _420  and  _421
REMARK  168  A    between atoms: _424  and  _426
REMARK  169  A    between atoms: _426  and  _427
REMARK  170  A    between atoms: _426  and  _429
REMARK  171  A    between atoms: _429  and  _430
REMARK  172  A    between atoms: _430  and  _431
REMARK  173  A    between atoms: _434  and  _436
REMARK  174  A    between atoms: _436  and  _437
REMARK  175  A    between atoms: _436  and  _439
REMARK  176  A    between atoms: _442  and  _444
REMARK  177  A    between atoms: _444  and  _445
REMARK  178  A    between atoms: _444  and  _447
REMARK  179  A    between atoms: _447  and  _448
REMARK  180  A    between atoms: _451  and  _453
REMARK  181  A    between atoms: _453  and  _454
REMARK  182  A    between atoms: _456  and  _458
REMARK  183  A    between atoms: _458  and  _459
REMARK  184  A    between atoms: _458  and  _461
REMARK  185  A    between atoms: _464  and  _466
REMARK  186  A    between atoms: _466  and  _467
REMARK  187  A    between atoms: _469  and  _471
REMARK  188  A    between atoms: _471  and  _472
REMARK  189  A    between atoms: _471  and  _474
REMARK  190  A    between atoms: _474  and  _475
REMARK  191  A    between atoms: _478  and  _480
REMARK  192  A    between atoms: _480  and  _481
REMARK  193  A    between atoms: _480  and  _483
REMARK  194  A    between atoms: _483  and  _484
REMARK  195  A    between atoms: _489  and  _491
REMARK  196  A    between atoms: _491  and  _492
REMARK  197  A    between atoms: _491  and  _494
REMARK  198  A    between atoms: _497  and  _499
REMARK  199  A    between atoms: _499  and  _500
REMARK  200  A    between atoms: _499  and  _502
REMARK  201  A    between atoms: _502  and  _503
REMARK  202  A    between atoms: _503  and  _504
REMARK  203  A    between atoms: _509  and  _511
REMARK  204  A    between atoms: _511  and  _512
REMARK  205  A    between atoms: _516  and  _517
REMARK  206  A    between atoms: _522  and  _524
REMARK  207  A    between atoms: _524  and  _525
REMARK  208  A    between atoms: _524  and  _527
REMARK  209  A    between atoms: _527  and  _528
REMARK  210  A    between atoms: _528  and  _529
REMARK  211  A    between atoms: _532  and  _534
REMARK  212  A    between atoms: _534  and  _535
REMARK  213  A    between atoms: _534  and  _537
REMARK  214  A    between atoms: _540  and  _542
REMARK  215  A    between atoms: _542  and  _543
REMARK  216  A    between atoms: _542  and  _545
REMARK  217  A    between atoms: _545  and  _546
REMARK  218  A    between atoms: _550  and  _551
REMARK  219  A    between atoms: _556  and  _558
REMARK  220  A    between atoms: _558  and  _559
REMARK  221  A    between atoms: _558  and  _561
REMARK  222  A    between atoms: _561  and  _562
REMARK  223  A    between atoms: _565  and  _567
REMARK  224  A    between atoms: _567  and  _568
REMARK  225  A    between atoms: _571  and  _573
REMARK  226  A    between atoms: _573  and  _574
REMARK  227  A    between atoms: _573  and  _576
REMARK  228  A    between atoms: _576  and  _577
REMARK  229  A    between atoms: _580  and  _582
REMARK  230  A    between atoms: _582  and  _583
REMARK  231  A    between atoms: _582  and  _585
REMARK  232  A    between atoms: _585  and  _586
REMARK  233  A    between atoms: _588  and  _590
REMARK  234  A    between atoms: _590  and  _591
REMARK  235  A    between atoms: _593  and  _595
REMARK  236  A    between atoms: _595  and  _596
REMARK  237  A    between atoms: _595  and  _598
REMARK  238  A    between atoms: _598  and  _599
REMARK  239  A    between atoms: _602  and  _604
REMARK  240  A    between atoms: _604  and  _605
REMARK  241  A    between atoms: _604  and  _607
REMARK                            x       y       z     vdW  Elec       q    Type
REMARK                         _______ _______ _______ _____ _____    ______ ____
ROOT
ATOM      1  O   HOH     1     -11.009  -2.374   5.495  0.00  0.00    +0.000 OA
ENDROOT
TORSDOF 0
REMARK  Name = ../refined-set-2016/4xu1/4xu1_pocket.pdb
REMARK  241 active torsions:
REMARK  status: ('A' for Active; 'I' for Inactive)
REMARK    1  A    between atoms: _1  and  _3
REMARK    2  A    between atoms: _3  and  _4
REMARK    3  A    between atoms: _3  and  _6
REMARK    4  A    between atoms: _6  and  _7
REMARK    5  A    between atoms: _10  and  _12
REMARK    6  A    between atoms: _12  and  _13
REMARK    7  A    between atoms: _15  and  _17
REMARK    8  A    between atoms: _17  and  _18
REMARK    9  A    between atoms: _17  and  _20
REMARK   10  A    between atoms: _20  and  _21
REMARK   11  A    between atoms: _23  and  _25
REMARK   12  A    between atoms: _25  and  _26
REMARK   13  A    between atoms: _25  and  _28
REMARK   14  A    between atoms: _28  and  _29
REMARK   15  A    between atoms: _32  and  _34
REMARK   16  A    between atoms: _34  and  _35
REMARK   17  A    between atoms: _34  and  _37
REMARK   18  A    between atoms: _37  and  _38
REMARK   19  A    between atoms: _43  and  _45
REMARK   20  A    between atoms: _45  and  _46
REMARK   21  A    between atoms: _49  and  _51
REMARK   22  A    between atoms: _51  and  _52
REMARK   23  A    between atoms: _51  and  _54
REMARK   24  A    between atoms: _54  and  _55
REMARK   25  A    between atoms: _58  and  _60
REMARK   26  A    between atoms: _60  and  _61
REMARK   27  A    between atoms: _60  and  _63
REMARK   28  A    between atoms: _63  and  _64
REMARK   29  A    between atoms: _67  and  _69
REMARK   30  A    between atoms: _69  and  _70
REMARK   31  A    between atoms: _69  and  _72
REMARK   32  A    between atoms: _72  and  _73
REMARK   33  A    between atoms: _76  and  _78
REMARK   34  A    between atoms: _78  and  _79
REMARK   35  A    between atoms: _78  and  _81
REMARK   36  A    between atoms: _81  and  _82
REMARK   37  A    between atoms: _85  and  _87
REMARK   38  A    between atoms: _87  and  _88
REMARK   39  A    between atoms: _91  and  _93
REMARK   40  A    between atoms: _93  and  _94
REMARK   41  A    between atoms: _93  and  _96
REMARK   42  A    between atoms: _96  and  _97
REMARK   43  A    between atoms: _97  and  _98
REMARK   44  A    between atoms: _103  and  _105
REMARK   45  A    between atoms: _105  and  _106
REMARK   46  A    between atoms: _105  and  _108
REMARK   47  A    between atoms: _108  and  _109
REMARK   48  A    between atoms: _112  and  _114
REMARK   49  A    between atoms: _114  and  _115
REMARK   50  A    between atoms: _118  and  _120
REMARK   51  A    between atoms: _120  and  _121
REMARK   52  A    between atoms: _123  and  _125
REMARK   53  A    between atoms: _125  and  _126
REMARK   54  A    between atoms: _125  and  _128
REMARK   55  A    between atoms: _128  and  _129
REMARK   56  A    between atoms: _129  and  _130
REMARK   57  A    between atoms: _130  and  _131
REMARK   58  A    between atoms: _140  and  _142
REMARK   59  A    between atoms: _142  and  _143
REMARK   60  A    between atoms: _145  and  _147
REMARK   61  A    between atoms: _147  and  _148
REMARK   62  A    between atoms: _147  and  _150
REMARK   63  A    between atoms: _150  and  _151
REMARK   64  A    between atoms: _151  and  _152
REMARK   65  A    between atoms: _152  and  _153
REMARK   66  A    between atoms: _162  and  _164
REMARK   67  A    between atoms: _164  and  _165
REMARK   68  A    between atoms: _164  and  _167
REMARK   69  A    between atoms: _167  and  _168
REMARK   70  A    between atoms: _173  and  _175
REMARK   71  A    between atoms: _175  and  _176
REMARK   72  A    between atoms: _178  and  _180
REMARK   73  A    between atoms: _180  and  _181
REMARK   74  A    between atoms: _180  and  _183
REMARK   75  A    between atoms: _183  and  _184
REMARK   76  A    between atoms: _184  and  _185
REMARK   77  A    between atoms: _185  and  _186
REMARK   78  A    between atoms: _195  and  _197
REMARK   79  A    between atoms: _197  and  _198
REMARK   80  A    between atoms: _200  and  _202
REMARK   81  A    between atoms: _202  and  _203
REMARK   82  A    between atoms: _202  and  _205
REMARK   83  A    between atoms: _205  and  _206
REMARK   84  A    between atoms: _216  and  _218
REMARK   85  A    between atoms: _218  and  _219
REMARK   86  A    between atoms: _222  and  _224
REMARK   87  A    between atoms: _224  and  _225
REMARK   88  A    between atoms: _228  and  _230
REMARK   89  A    between atoms: _230  and  _231
REMARK   90  A    between atoms: _230  and  _233
REMARK   91  A    between atoms: _233  and  _234
REMARK   92  A    between atoms: _237  and  _239
REMARK   93  A    between atoms: _239  and  _240
REMARK   94  A    between atoms: _243  and  _245
REMARK   95  A    between atoms: _245  and  _246
REMARK   96  A    between atoms: _245  and  _248
REMARK   97  A    between atoms: _248  and  _249
REMARK   98  A    between atoms: _249  and  _250
REMARK   99  A    between atoms: _255  and  _257
REMARK  100  A    between atoms: _257  and  _258
REMARK  101  A    between atoms: _257  and  _260
REMARK  102  A    between atoms: _260  and  _261
REMARK  103  A    between atoms: _264  and  _266
REMARK  104  A    between atoms: _266  and  _267
REMARK  105  A    between atoms: _266  and  _269
REMARK  106  A    between atoms: _269  and  _270
REMARK  107  A    between atoms: _273  and  _275
REMARK  108  A    between atoms: _275  and  _276
REMARK  109  A    between atoms: _275  and  _278
REMARK  110  A    between atoms: _278  and  _279
REMARK  111  A    between atoms: _282  and  _284
REMARK  112  A    between atoms: _284  and  _285
REMARK  113  A    between atoms: _284  and  _287
REMARK  114  A    between atoms: _287  and  _288
REMARK  115  A    between atoms: _290  and  _292
REMARK  116  A    between atoms: _292  and  _293
REMARK  117  A    between atoms: _292  and  _295
REMARK  118  A    between atoms: _298  and  _300
REMARK  119  A    between atoms: _300  and  _301
REMARK  120  A    between atoms: _300  and  _303
REMARK  121  A    between atoms: _303  and  _304
REMARK  122  A    between atoms: _304  and  _305
REMARK  123  A    between atoms: _305  and  _306
REMARK  124  A    between atoms: _306  and  _307
REMARK  125  A    between atoms: _311  and  _313
REMARK  126  A    between atoms: _313  and  _314
REMARK  127  A    between atoms: _313  and  _316
REMARK  128  A    between atoms: _316  and  _317
REMARK  129  A    between atoms: _328  and  _329
REMARK  130  A    between atoms: _334  and  _336
REMARK  131  A    between atoms: _336  and  _337
REMARK  132  A    between atoms: _336  and  _339
REMARK  133  A    between atoms: _339  and  _340
REMARK  134  A    between atoms: _345  and  _347
REMARK  135  A    between atoms: _347  and  _348
REMARK  136  A    between atoms: _347  and  _350
REMARK  137  A    between atoms: _350  and  _351
REMARK  138  A    between atoms: _354  and  _356
REMARK  139  A    between atoms: _356  and  _357
REMARK  140  A    between atoms: _356  and  _359
REMARK  141  A    between atoms: _362  and  _364
REMARK  142  A    between atoms: _364  and  _365
REMARK  143  A    between atoms: _367  and  _369
REMARK  144  A    between atoms: _369  and  _370
REMARK  145  A    between atoms: _369  and  _372
REMARK  146  A    between atoms: _372  and  _373
REMARK  147  A    between atoms: _373  and  _374
REMARK  148  A    between atoms: _374  and  _375
REMARK  149  A    between atoms: _375  and  _376
REMARK  150  A    between atoms: _380  and  _382
REMARK  151  A    between atoms: _382  and  _383
REMARK  152  A    between atoms: _382  and  _385
REMARK  153  A    between atoms: _385  and  _386
REMARK  154  A    between atoms: _389  and  _391
REMARK  155  A    between atoms: _391  and  _392
REMARK  156  A    between atoms: _395  and  _397
REMARK  157  A    between atoms: _397  and  _398
REMARK  158  A    between atoms: _400  and  _402
REMARK  159  A    between atoms: _402  and  _403
REMARK  160  A    between atoms: _402  and  _405
REMARK  161  A    between atoms: _405  and  _406
REMARK  162  A    between atoms: _409  and  _411
REMARK  163  A    between atoms: _411  and  _412
REMARK  164  A    between atoms: _411  and  _414
REMARK  165  A    between atoms: _414  and  _415
REMARK  166  A    between atoms: _418  and  _420
REMARK  167  A    between atoms: _420  and  _421
REMARK  168  A    between atoms: _424  and  _426
REMARK  169  A    between atoms: _426  and  _427
REMARK  170  A    between atoms: _426  and  _429
REMARK  171  A    between atoms: _429  and  _430
REMARK  172  A    between atoms: _430  and  _431
REMARK  173  A    between atoms: _434  and  _436
REMARK  174  A    between atoms: _436  and  _437
REMARK  175  A    between atoms: _436  and  _439
REMARK  176  A    between atoms: _442  and  _444
REMARK  177  A    between atoms: _444  and  _445
REMARK  178  A    between atoms: _444  and  _447
REMARK  179  A    between atoms: _447  and  _448
REMARK  180  A    between atoms: _451  and  _453
REMARK  181  A    between atoms: _453  and  _454
REMARK  182  A    between atoms: _456  and  _458
REMARK  183  A    between atoms: _458  and  _459
REMARK  184  A    between atoms: _458  and  _461
REMARK  185  A    between atoms: _464  and  _466
REMARK  186  A    between atoms: _466  and  _467
REMARK  187  A    between atoms: _469  and  _471
REMARK  188  A    between atoms: _471  and  _472
REMARK  189  A    between atoms: _471  and  _474
REMARK  190  A    between atoms: _474  and  _475
REMARK  191  A    between atoms: _478  and  _480
REMARK  192  A    between atoms: _480  and  _481
REMARK  193  A    between atoms: _480  and  _483
REMARK  194  A    between atoms: _483  and  _484
REMARK  195  A    between atoms: _489  and  _491
REMARK  196  A    between atoms: _491  and  _492
REMARK  197  A    between atoms: _491  and  _494
REMARK  198  A    between atoms: _497  and  _499
REMARK  199  A    between atoms: _499  and  _500
REMARK  200  A    between atoms: _499  and  _502
REMARK  201  A    between atoms: _502  and  _503
REMARK  202  A    between atoms: _503  and  _504
REMARK  203  A    between atoms: _509  and  _511
REMARK  204  A    between atoms: _511  and  _512
REMARK  205  A    between atoms: _516  and  _517
REMARK  206  A    between atoms: _522  and  _524
REMARK  207  A    between atoms: _524  and  _525
REMARK  208  A    between atoms: _524  and  _527
REMARK  209  A    between atoms: _527  and  _528
REMARK  210  A    between atoms: _528  and  _529
REMARK  211  A    between atoms: _532  and  _534
REMARK  212  A    between atoms: _534  and  _535
REMARK  213  A    between atoms: _534  and  _537
REMARK  214  A    between atoms: _540  and  _542
REMARK  215  A    between atoms: _542  and  _543
REMARK  216  A    between atoms: _542  and  _545
REMARK  217  A    between atoms: _545  and  _546
REMARK  218  A    between atoms: _550  and  _551
REMARK  219  A    between atoms: _556  and  _558
REMARK  220  A    between atoms: _558  and  _559
REMARK  221  A    between atoms: _558  and  _561
REMARK  222  A    between atoms: _561  and  _562
REMARK  223  A    between atoms: _565  and  _567
REMARK  224  A    between atoms: _567  and  _568
REMARK  225  A    between atoms: _571  and  _573
REMARK  226  A    between atoms: _573  and  _574
REMARK  227  A    between atoms: _573  and  _576
REMARK  228  A    between atoms: _576  and  _577
REMARK  229  A    between atoms: _580  and  _582
REMARK  230  A    between atoms: _582  and  _583
REMARK  231  A    between atoms: _582  and  _585
REMARK  232  A    between atoms: _585  and  _586
REMARK  233  A    between atoms: _588  and  _590
REMARK  234  A    between atoms: _590  and  _591
REMARK  235  A    between atoms: _593  and  _595
REMARK  236  A    between atoms: _595  and  _596
REMARK  237  A    between atoms: _595  and  _598
REMARK  238  A    between atoms: _598  and  _599
REMARK  239  A    between atoms: _602  and  _604
REMARK  240  A    between atoms: _604  and  _605
REMARK  241  A    between atoms: _604  and  _607
REMARK                            x       y       z     vdW  Elec       q    Type
REMARK                         _______ _______ _______ _____ _____    ______ ____
ROOT
ATOM      1  O   HOH     1       6.286  -9.933  14.399  0.00  0.00    +0.000 OA
ENDROOT
TORSDOF 0
REMARK  Name = ../refined-set-2016/4xu1/4xu1_pocket.pdb
REMARK  241 active torsions:
REMARK  status: ('A' for Active; 'I' for Inactive)
REMARK    1  A    between atoms: _1  and  _3
REMARK    2  A    between atoms: _3  and  _4
REMARK    3  A    between atoms: _3  and  _6
REMARK    4  A    between atoms: _6  and  _7
REMARK    5  A    between atoms: _10  and  _12
REMARK    6  A    between atoms: _12  and  _13
REMARK    7  A    between atoms: _15  and  _17
REMARK    8  A    between atoms: _17  and  _18
REMARK    9  A    between atoms: _17  and  _20
REMARK   10  A    between atoms: _20  and  _21
REMARK   11  A    between atoms: _23  and  _25
REMARK   12  A    between atoms: _25  and  _26
REMARK   13  A    between atoms: _25  and  _28
REMARK   14  A    between atoms: _28  and  _29
REMARK   15  A    between atoms: _32  and  _34
REMARK   16  A    between atoms: _34  and  _35
REMARK   17  A    between atoms: _34  and  _37
REMARK   18  A    between atoms: _37  and  _38
REMARK   19  A    between atoms: _43  and  _45
REMARK   20  A    between atoms: _45  and  _46
REMARK   21  A    between atoms: _49  and  _51
REMARK   22  A    between atoms: _51  and  _52
REMARK   23  A    between atoms: _51  and  _54
REMARK   24  A    between atoms: _54  and  _55
REMARK   25  A    between atoms: _58  and  _60
REMARK   26  A    between atoms: _60  and  _61
REMARK   27  A    between atoms: _60  and  _63
REMARK   28  A    between atoms: _63  and  _64
REMARK   29  A    between atoms: _67  and  _69
REMARK   30  A    between atoms: _69  and  _70
REMARK   31  A    between atoms: _69  and  _72
REMARK   32  A    between atoms: _72  and  _73
REMARK   33  A    between atoms: _76  and  _78
REMARK   34  A    between atoms: _78  and  _79
REMARK   35  A    between atoms: _78  and  _81
REMARK   36  A    between atoms: _81  and  _82
REMARK   37  A    between atoms: _85  and  _87
REMARK   38  A    between atoms: _87  and  _88
REMARK   39  A    between atoms: _91  and  _93
REMARK   40  A    between atoms: _93  and  _94
REMARK   41  A    between atoms: _93  and  _96
REMARK   42  A    between atoms: _96  and  _97
REMARK   43  A    between atoms: _97  and  _98
REMARK   44  A    between atoms: _103  and  _105
REMARK   45  A    between atoms: _105  and  _106
REMARK   46  A    between atoms: _105  and  _108
REMARK   47  A    between atoms: _108  and  _109
REMARK   48  A    between atoms: _112  and  _114
REMARK   49  A    between atoms: _114  and  _115
REMARK   50  A    between atoms: _118  and  _120
REMARK   51  A    between atoms: _120  and  _121
REMARK   52  A    between atoms: _123  and  _125
REMARK   53  A    between atoms: _125  and  _126
REMARK   54  A    between atoms: _125  and  _128
REMARK   55  A    between atoms: _128  and  _129
REMARK   56  A    between atoms: _129  and  _130
REMARK   57  A    between atoms: _130  and  _131
REMARK   58  A    between atoms: _140  and  _142
REMARK   59  A    between atoms: _142  and  _143
REMARK   60  A    between atoms: _145  and  _147
REMARK   61  A    between atoms: _147  and  _148
REMARK   62  A    between atoms: _147  and  _150
REMARK   63  A    between atoms: _150  and  _151
REMARK   64  A    between atoms: _151  and  _152
REMARK   65  A    between atoms: _152  and  _153
REMARK   66  A    between atoms: _162  and  _164
REMARK   67  A    between atoms: _164  and  _165
REMARK   68  A    between atoms: _164  and  _167
REMARK   69  A    between atoms: _167  and  _168
REMARK   70  A    between atoms: _173  and  _175
REMARK   71  A    between atoms: _175  and  _176
REMARK   72  A    between atoms: _178  and  _180
REMARK   73  A    between atoms: _180  and  _181
REMARK   74  A    between atoms: _180  and  _183
REMARK   75  A    between atoms: _183  and  _184
REMARK   76  A    between atoms: _184  and  _185
REMARK   77  A    between atoms: _185  and  _186
REMARK   78  A    between atoms: _195  and  _197
REMARK   79  A    between atoms: _197  and  _198
REMARK   80  A    between atoms: _200  and  _202
REMARK   81  A    between atoms: _202  and  _203
REMARK   82  A    between atoms: _202  and  _205
REMARK   83  A    between atoms: _205  and  _206
REMARK   84  A    between atoms: _216  and  _218
REMARK   85  A    between atoms: _218  and  _219
REMARK   86  A    between atoms: _222  and  _224
REMARK   87  A    between atoms: _224  and  _225
REMARK   88  A    between atoms: _228  and  _230
REMARK   89  A    between atoms: _230  and  _231
REMARK   90  A    between atoms: _230  and  _233
REMARK   91  A    between atoms: _233  and  _234
REMARK   92  A    between atoms: _237  and  _239
REMARK   93  A    between atoms: _239  and  _240
REMARK   94  A    between atoms: _243  and  _245
REMARK   95  A    between atoms: _245  and  _246
REMARK   96  A    between atoms: _245  and  _248
REMARK   97  A    between atoms: _248  and  _249
REMARK   98  A    between atoms: _249  and  _250
REMARK   99  A    between atoms: _255  and  _257
REMARK  100  A    between atoms: _257  and  _258
REMARK  101  A    between atoms: _257  and  _260
REMARK  102  A    between atoms: _260  and  _261
REMARK  103  A    between atoms: _264  and  _266
REMARK  104  A    between atoms: _266  and  _267
REMARK  105  A    between atoms: _266  and  _269
REMARK  106  A    between atoms: _269  and  _270
REMARK  107  A    between atoms: _273  and  _275
REMARK  108  A    between atoms: _275  and  _276
REMARK  109  A    between atoms: _275  and  _278
REMARK  110  A    between atoms: _278  and  _279
REMARK  111  A    between atoms: _282  and  _284
REMARK  112  A    between atoms: _284  and  _285
REMARK  113  A    between atoms: _284  and  _287
REMARK  114  A    between atoms: _287  and  _288
REMARK  115  A    between atoms: _290  and  _292
REMARK  116  A    between atoms: _292  and  _293
REMARK  117  A    between atoms: _292  and  _295
REMARK  118  A    between atoms: _298  and  _300
REMARK  119  A    between atoms: _300  and  _301
REMARK  120  A    between atoms: _300  and  _303
REMARK  121  A    between atoms: _303  and  _304
REMARK  122  A    between atoms: _304  and  _305
REMARK  123  A    between atoms: _305  and  _306
REMARK  124  A    between atoms: _306  and  _307
REMARK  125  A    between atoms: _311  and  _313
REMARK  126  A    between atoms: _313  and  _314
REMARK  127  A    between atoms: _313  and  _316
REMARK  128  A    between atoms: _316  and  _317
REMARK  129  A    between atoms: _328  and  _329
REMARK  130  A    between atoms: _334  and  _336
REMARK  131  A    between atoms: _336  and  _337
REMARK  132  A    between atoms: _336  and  _339
REMARK  133  A    between atoms: _339  and  _340
REMARK  134  A    between atoms: _345  and  _347
REMARK  135  A    between atoms: _347  and  _348
REMARK  136  A    between atoms: _347  and  _350
REMARK  137  A    between atoms: _350  and  _351
REMARK  138  A    between atoms: _354  and  _356
REMARK  139  A    between atoms: _356  and  _357
REMARK  140  A    between atoms: _356  and  _359
REMARK  141  A    between atoms: _362  and  _364
REMARK  142  A    between atoms: _364  and  _365
REMARK  143  A    between atoms: _367  and  _369
REMARK  144  A    between atoms: _369  and  _370
REMARK  145  A    between atoms: _369  and  _372
REMARK  146  A    between atoms: _372  and  _373
REMARK  147  A    between atoms: _373  and  _374
REMARK  148  A    between atoms: _374  and  _375
REMARK  149  A    between atoms: _375  and  _376
REMARK  150  A    between atoms: _380  and  _382
REMARK  151  A    between atoms: _382  and  _383
REMARK  152  A    between atoms: _382  and  _385
REMARK  153  A    between atoms: _385  and  _386
REMARK  154  A    between atoms: _389  and  _391
REMARK  155  A    between atoms: _391  and  _392
REMARK  156  A    between atoms: _395  and  _397
REMARK  157  A    between atoms: _397  and  _398
REMARK  158  A    between atoms: _400  and  _402
REMARK  159  A    between atoms: _402  and  _403
REMARK  160  A    between atoms: _402  and  _405
REMARK  161  A    between atoms: _405  and  _406
REMARK  162  A    between atoms: _409  and  _411
REMARK  163  A    between atoms: _411  and  _412
REMARK  164  A    between atoms: _411  and  _414
REMARK  165  A    between atoms: _414  and  _415
REMARK  166  A    between atoms: _418  and  _420
REMARK  167  A    between atoms: _420  and  _421
REMARK  168  A    between atoms: _424  and  _426
REMARK  169  A    between atoms: _426  and  _427
REMARK  170  A    between atoms: _426  and  _429
REMARK  171  A    between atoms: _429  and  _430
REMARK  172  A    between atoms: _430  and  _431
REMARK  173  A    between atoms: _434  and  _436
REMARK  174  A    between atoms: _436  and  _437
REMARK  175  A    between atoms: _436  and  _439
REMARK  176  A    between atoms: _442  and  _444
REMARK  177  A    between atoms: _444  and  _445
REMARK  178  A    between atoms: _444  and  _447
REMARK  179  A    between atoms: _447  and  _448
REMARK  180  A    between atoms: _451  and  _453
REMARK  181  A    between atoms: _453  and  _454
REMARK  182  A    between atoms: _456  and  _458
REMARK  183  A    between atoms: _458  and  _459
REMARK  184  A    between atoms: _458  and  _461
REMARK  185  A    between atoms: _464  and  _466
REMARK  186  A    between atoms: _466  and  _467
REMARK  187  A    between atoms: _469  and  _471
REMARK  188  A    between atoms: _471  and  _472
REMARK  189  A    between atoms: _471  and  _474
REMARK  190  A    between atoms: _474  and  _475
REMARK  191  A    between atoms: _478  and  _480
REMARK  192  A    between atoms: _480  and  _481
REMARK  193  A    between atoms: _480  and  _483
REMARK  194  A    between atoms: _483  and  _484
REMARK  195  A    between atoms: _489  and  _491
REMARK  196  A    between atoms: _491  and  _492
REMARK  197  A    between atoms: _491  and  _494
REMARK  198  A    between atoms: _497  and  _499
REMARK  199  A    between atoms: _499  and  _500
REMARK  200  A    between atoms: _499  and  _502
REMARK  201  A    between atoms: _502  and  _503
REMARK  202  A    between atoms: _503  and  _504
REMARK  203  A    between atoms: _509  and  _511
REMARK  204  A    between atoms: _511  and  _512
REMARK  205  A    between atoms: _516  and  _517
REMARK  206  A    between atoms: _522  and  _524
REMARK  207  A    between atoms: _524  and  _525
REMARK  208  A    between atoms: _524  and  _527
REMARK  209  A    between atoms: _527  and  _528
REMARK  210  A    between atoms: _528  and  _529
REMARK  211  A    between atoms: _532  and  _534
REMARK  212  A    between atoms: _534  and  _535
REMARK  213  A    between atoms: _534  and  _537
REMARK  214  A    between atoms: _540  and  _542
REMARK  215  A    between atoms: _542  and  _543
REMARK  216  A    between atoms: _542  and  _545
REMARK  217  A    between atoms: _545  and  _546
REMARK  218  A    between atoms: _550  and  _551
REMARK  219  A    between atoms: _556  and  _558
REMARK  220  A    between atoms: _558  and  _559
REMARK  221  A    between atoms: _558  and  _561
REMARK  222  A    between atoms: _561  and  _562
REMARK  223  A    between atoms: _565  and  _567
REMARK  224  A    between atoms: _567  and  _568
REMARK  225  A    between atoms: _571  and  _573
REMARK  226  A    between atoms: _573  and  _574
REMARK  227  A    between atoms: _573  and  _576
REMARK  228  A    between atoms: _576  and  _577
REMARK  229  A    between atoms: _580  and  _582
REMARK  230  A    between atoms: _582  and  _583
REMARK  231  A    between atoms: _582  and  _585
REMARK  232  A    between atoms: _585  and  _586
REMARK  233  A    between atoms: _588  and  _590
REMARK  234  A    between atoms: _590  and  _591
REMARK  235  A    between atoms: _593  and  _595
REMARK  236  A    between atoms: _595  and  _596
REMARK  237  A    between atoms: _595  and  _598
REMARK  238  A    between atoms: _598  and  _599
REMARK  239  A    between atoms: _602  and  _604
REMARK  240  A    between atoms: _604  and  _605
REMARK  241  A    between atoms: _604  and  _607
REMARK                            x       y       z     vdW  Elec       q    Type
REMARK                         _______ _______ _______ _____ _____    ______ ____
ROOT
ATOM      1  O   HOH     1       0.282  -0.103   9.403  0.00  0.00    +0.000 OA
ENDROOT
TORSDOF 0
REMARK  Name = ../refined-set-2016/4xu1/4xu1_pocket.pdb
REMARK  241 active torsions:
REMARK  status: ('A' for Active; 'I' for Inactive)
REMARK    1  A    between atoms: _1  and  _3
REMARK    2  A    between atoms: _3  and  _4
REMARK    3  A    between atoms: _3  and  _6
REMARK    4  A    between atoms: _6  and  _7
REMARK    5  A    between atoms: _10  and  _12
REMARK    6  A    between atoms: _12  and  _13
REMARK    7  A    between atoms: _15  and  _17
REMARK    8  A    between atoms: _17  and  _18
REMARK    9  A    between atoms: _17  and  _20
REMARK   10  A    between atoms: _20  and  _21
REMARK   11  A    between atoms: _23  and  _25
REMARK   12  A    between atoms: _25  and  _26
REMARK   13  A    between atoms: _25  and  _28
REMARK   14  A    between atoms: _28  and  _29
REMARK   15  A    between atoms: _32  and  _34
REMARK   16  A    between atoms: _34  and  _35
REMARK   17  A    between atoms: _34  and  _37
REMARK   18  A    between atoms: _37  and  _38
REMARK   19  A    between atoms: _43  and  _45
REMARK   20  A    between atoms: _45  and  _46
REMARK   21  A    between atoms: _49  and  _51
REMARK   22  A    between atoms: _51  and  _52
REMARK   23  A    between atoms: _51  and  _54
REMARK   24  A    between atoms: _54  and  _55
REMARK   25  A    between atoms: _58  and  _60
REMARK   26  A    between atoms: _60  and  _61
REMARK   27  A    between atoms: _60  and  _63
REMARK   28  A    between atoms: _63  and  _64
REMARK   29  A    between atoms: _67  and  _69
REMARK   30  A    between atoms: _69  and  _70
REMARK   31  A    between atoms: _69  and  _72
REMARK   32  A    between atoms: _72  and  _73
REMARK   33  A    between atoms: _76  and  _78
REMARK   34  A    between atoms: _78  and  _79
REMARK   35  A    between atoms: _78  and  _81
REMARK   36  A    between atoms: _81  and  _82
REMARK   37  A    between atoms: _85  and  _87
REMARK   38  A    between atoms: _87  and  _88
REMARK   39  A    between atoms: _91  and  _93
REMARK   40  A    between atoms: _93  and  _94
REMARK   41  A    between atoms: _93  and  _96
REMARK   42  A    between atoms: _96  and  _97
REMARK   43  A    between atoms: _97  and  _98
REMARK   44  A    between atoms: _103  and  _105
REMARK   45  A    between atoms: _105  and  _106
REMARK   46  A    between atoms: _105  and  _108
REMARK   47  A    between atoms: _108  and  _109
REMARK   48  A    between atoms: _112  and  _114
REMARK   49  A    between atoms: _114  and  _115
REMARK   50  A    between atoms: _118  and  _120
REMARK   51  A    between atoms: _120  and  _121
REMARK   52  A    between atoms: _123  and  _125
REMARK   53  A    between atoms: _125  and  _126
REMARK   54  A    between atoms: _125  and  _128
REMARK   55  A    between atoms: _128  and  _129
REMARK   56  A    between atoms: _129  and  _130
REMARK   57  A    between atoms: _130  and  _131
REMARK   58  A    between atoms: _140  and  _142
REMARK   59  A    between atoms: _142  and  _143
REMARK   60  A    between atoms: _145  and  _147
REMARK   61  A    between atoms: _147  and  _148
REMARK   62  A    between atoms: _147  and  _150
REMARK   63  A    between atoms: _150  and  _151
REMARK   64  A    between atoms: _151  and  _152
REMARK   65  A    between atoms: _152  and  _153
REMARK   66  A    between atoms: _162  and  _164
REMARK   67  A    between atoms: _164  and  _165
REMARK   68  A    between atoms: _164  and  _167
REMARK   69  A    between atoms: _167  and  _168
REMARK   70  A    between atoms: _173  and  _175
REMARK   71  A    between atoms: _175  and  _176
REMARK   72  A    between atoms: _178  and  _180
REMARK   73  A    between atoms: _180  and  _181
REMARK   74  A    between atoms: _180  and  _183
REMARK   75  A    between atoms: _183  and  _184
REMARK   76  A    between atoms: _184  and  _185
REMARK   77  A    between atoms: _185  and  _186
REMARK   78  A    between atoms: _195  and  _197
REMARK   79  A    between atoms: _197  and  _198
REMARK   80  A    between atoms: _200  and  _202
REMARK   81  A    between atoms: _202  and  _203
REMARK   82  A    between atoms: _202  and  _205
REMARK   83  A    between atoms: _205  and  _206
REMARK   84  A    between atoms: _216  and  _218
REMARK   85  A    between atoms: _218  and  _219
REMARK   86  A    between atoms: _222  and  _224
REMARK   87  A    between atoms: _224  and  _225
REMARK   88  A    between atoms: _228  and  _230
REMARK   89  A    between atoms: _230  and  _231
REMARK   90  A    between atoms: _230  and  _233
REMARK   91  A    between atoms: _233  and  _234
REMARK   92  A    between atoms: _237  and  _239
REMARK   93  A    between atoms: _239  and  _240
REMARK   94  A    between atoms: _243  and  _245
REMARK   95  A    between atoms: _245  and  _246
REMARK   96  A    between atoms: _245  and  _248
REMARK   97  A    between atoms: _248  and  _249
REMARK   98  A    between atoms: _249  and  _250
REMARK   99  A    between atoms: _255  and  _257
REMARK  100  A    between atoms: _257  and  _258
REMARK  101  A    between atoms: _257  and  _260
REMARK  102  A    between atoms: _260  and  _261
REMARK  103  A    between atoms: _264  and  _266
REMARK  104  A    between atoms: _266  and  _267
REMARK  105  A    between atoms: _266  and  _269
REMARK  106  A    between atoms: _269  and  _270
REMARK  107  A    between atoms: _273  and  _275
REMARK  108  A    between atoms: _275  and  _276
REMARK  109  A    between atoms: _275  and  _278
REMARK  110  A    between atoms: _278  and  _279
REMARK  111  A    between atoms: _282  and  _284
REMARK  112  A    between atoms: _284  and  _285
REMARK  113  A    between atoms: _284  and  _287
REMARK  114  A    between atoms: _287  and  _288
REMARK  115  A    between atoms: _290  and  _292
REMARK  116  A    between atoms: _292  and  _293
REMARK  117  A    between atoms: _292  and  _295
REMARK  118  A    between atoms: _298  and  _300
REMARK  119  A    between atoms: _300  and  _301
REMARK  120  A    between atoms: _300  and  _303
REMARK  121  A    between atoms: _303  and  _304
REMARK  122  A    between atoms: _304  and  _305
REMARK  123  A    between atoms: _305  and  _306
REMARK  124  A    between atoms: _306  and  _307
REMARK  125  A    between atoms: _311  and  _313
REMARK  126  A    between atoms: _313  and  _314
REMARK  127  A    between atoms: _313  and  _316
REMARK  128  A    between atoms: _316  and  _317
REMARK  129  A    between atoms: _328  and  _329
REMARK  130  A    between atoms: _334  and  _336
REMARK  131  A    between atoms: _336  and  _337
REMARK  132  A    between atoms: _336  and  _339
REMARK  133  A    between atoms: _339  and  _340
REMARK  134  A    between atoms: _345  and  _347
REMARK  135  A    between atoms: _347  and  _348
REMARK  136  A    between atoms: _347  and  _350
REMARK  137  A    between atoms: _350  and  _351
REMARK  138  A    between atoms: _354  and  _356
REMARK  139  A    between atoms: _356  and  _357
REMARK  140  A    between atoms: _356  and  _359
REMARK  141  A    between atoms: _362  and  _364
REMARK  142  A    between atoms: _364  and  _365
REMARK  143  A    between atoms: _367  and  _369
REMARK  144  A    between atoms: _369  and  _370
REMARK  145  A    between atoms: _369  and  _372
REMARK  146  A    between atoms: _372  and  _373
REMARK  147  A    between atoms: _373  and  _374
REMARK  148  A    between atoms: _374  and  _375
REMARK  149  A    between atoms: _375  and  _376
REMARK  150  A    between atoms: _380  and  _382
REMARK  151  A    between atoms: _382  and  _383
REMARK  152  A    between atoms: _382  and  _385
REMARK  153  A    between atoms: _385  and  _386
REMARK  154  A    between atoms: _389  and  _391
REMARK  155  A    between atoms: _391  and  _392
REMARK  156  A    between atoms: _395  and  _397
REMARK  157  A    between atoms: _397  and  _398
REMARK  158  A    between atoms: _400  and  _402
REMARK  159  A    between atoms: _402  and  _403
REMARK  160  A    between atoms: _402  and  _405
REMARK  161  A    between atoms: _405  and  _406
REMARK  162  A    between atoms: _409  and  _411
REMARK  163  A    between atoms: _411  and  _412
REMARK  164  A    between atoms: _411  and  _414
REMARK  165  A    between atoms: _414  and  _415
REMARK  166  A    between atoms: _418  and  _420
REMARK  167  A    between atoms: _420  and  _421
REMARK  168  A    between atoms: _424  and  _426
REMARK  169  A    between atoms: _426  and  _427
REMARK  170  A    between atoms: _426  and  _429
REMARK  171  A    between atoms: _429  and  _430
REMARK  172  A    between atoms: _430  and  _431
REMARK  173  A    between atoms: _434  and  _436
REMARK  174  A    between atoms: _436  and  _437
REMARK  175  A    between atoms: _436  and  _439
REMARK  176  A    between atoms: _442  and  _444
REMARK  177  A    between atoms: _444  and  _445
REMARK  178  A    between atoms: _444  and  _447
REMARK  179  A    between atoms: _447  and  _448
REMARK  180  A    between atoms: _451  and  _453
REMARK  181  A    between atoms: _453  and  _454
REMARK  182  A    between atoms: _456  and  _458
REMARK  183  A    between atoms: _458  and  _459
REMARK  184  A    between atoms: _458  and  _461
REMARK  185  A    between atoms: _464  and  _466
REMARK  186  A    between atoms: _466  and  _467
REMARK  187  A    between atoms: _469  and  _471
REMARK  188  A    between atoms: _471  and  _472
REMARK  189  A    between atoms: _471  and  _474
REMARK  190  A    between atoms: _474  and  _475
REMARK  191  A    between atoms: _478  and  _480
REMARK  192  A    between atoms: _480  and  _481
REMARK  193  A    between atoms: _480  and  _483
REMARK  194  A    between atoms: _483  and  _484
REMARK  195  A    between atoms: _489  and  _491
REMARK  196  A    between atoms: _491  and  _492
REMARK  197  A    between atoms: _491  and  _494
REMARK  198  A    between atoms: _497  and  _499
REMARK  199  A    between atoms: _499  and  _500
REMARK  200  A    between atoms: _499  and  _502
REMARK  201  A    between atoms: _502  and  _503
REMARK  202  A    between atoms: _503  and  _504
REMARK  203  A    between atoms: _509  and  _511
REMARK  204  A    between atoms: _511  and  _512
REMARK  205  A    between atoms: _516  and  _517
REMARK  206  A    between atoms: _522  and  _524
REMARK  207  A    between atoms: _524  and  _525
REMARK  208  A    between atoms: _524  and  _527
REMARK  209  A    between atoms: _527  and  _528
REMARK  210  A    between atoms: _528  and  _529
REMARK  211  A    between atoms: _532  and  _534
REMARK  212  A    between atoms: _534  and  _535
REMARK  213  A    between atoms: _534  and  _537
REMARK  214  A    between atoms: _540  and  _542
REMARK  215  A    between atoms: _542  and  _543
REMARK  216  A    between atoms: _542  and  _545
REMARK  217  A    between atoms: _545  and  _546
REMARK  218  A    between atoms: _550  and  _551
REMARK  219  A    between atoms: _556  and  _558
REMARK  220  A    between atoms: _558  and  _559
REMARK  221  A    between atoms: _558  and  _561
REMARK  222  A    between atoms: _561  and  _562
REMARK  223  A    between atoms: _565  and  _567
REMARK  224  A    between atoms: _567  and  _568
REMARK  225  A    between atoms: _571  and  _573
REMARK  226  A    between atoms: _573  and  _574
REMARK  227  A    between atoms: _573  and  _576
REMARK  228  A    between atoms: _576  and  _577
REMARK  229  A    between atoms: _580  and  _582
REMARK  230  A    between atoms: _582  and  _583
REMARK  231  A    between atoms: _582  and  _585
REMARK  232  A    between atoms: _585  and  _586
REMARK  233  A    between atoms: _588  and  _590
REMARK  234  A    between atoms: _590  and  _591
REMARK  235  A    between atoms: _593  and  _595
REMARK  236  A    between atoms: _595  and  _596
REMARK  237  A    between atoms: _595  and  _598
REMARK  238  A    between atoms: _598  and  _599
REMARK  239  A    between atoms: _602  and  _604
REMARK  240  A    between atoms: _604  and  _605
REMARK  241  A    between atoms: _604  and  _607
REMARK                            x       y       z     vdW  Elec       q    Type
REMARK                         _______ _______ _______ _____ _____    ______ ____
ROOT
ATOM      1  O   HOH     1     -13.560   0.473   7.061  0.00  0.00    +0.000 OA
ENDROOT
TORSDOF 0
REMARK  Name = ../refined-set-2016/4xu1/4xu1_pocket.pdb
REMARK  241 active torsions:
REMARK  status: ('A' for Active; 'I' for Inactive)
REMARK    1  A    between atoms: _1  and  _3
REMARK    2  A    between atoms: _3  and  _4
REMARK    3  A    between atoms: _3  and  _6
REMARK    4  A    between atoms: _6  and  _7
REMARK    5  A    between atoms: _10  and  _12
REMARK    6  A    between atoms: _12  and  _13
REMARK    7  A    between atoms: _15  and  _17
REMARK    8  A    between atoms: _17  and  _18
REMARK    9  A    between atoms: _17  and  _20
REMARK   10  A    between atoms: _20  and  _21
REMARK   11  A    between atoms: _23  and  _25
REMARK   12  A    between atoms: _25  and  _26
REMARK   13  A    between atoms: _25  and  _28
REMARK   14  A    between atoms: _28  and  _29
REMARK   15  A    between atoms: _32  and  _34
REMARK   16  A    between atoms: _34  and  _35
REMARK   17  A    between atoms: _34  and  _37
REMARK   18  A    between atoms: _37  and  _38
REMARK   19  A    between atoms: _43  and  _45
REMARK   20  A    between atoms: _45  and  _46
REMARK   21  A    between atoms: _49  and  _51
REMARK   22  A    between atoms: _51  and  _52
REMARK   23  A    between atoms: _51  and  _54
REMARK   24  A    between atoms: _54  and  _55
REMARK   25  A    between atoms: _58  and  _60
REMARK   26  A    between atoms: _60  and  _61
REMARK   27  A    between atoms: _60  and  _63
REMARK   28  A    between atoms: _63  and  _64
REMARK   29  A    between atoms: _67  and  _69
REMARK   30  A    between atoms: _69  and  _70
REMARK   31  A    between atoms: _69  and  _72
REMARK   32  A    between atoms: _72  and  _73
REMARK   33  A    between atoms: _76  and  _78
REMARK   34  A    between atoms: _78  and  _79
REMARK   35  A    between atoms: _78  and  _81
REMARK   36  A    between atoms: _81  and  _82
REMARK   37  A    between atoms: _85  and  _87
REMARK   38  A    between atoms: _87  and  _88
REMARK   39  A    between atoms: _91  and  _93
REMARK   40  A    between atoms: _93  and  _94
REMARK   41  A    between atoms: _93  and  _96
REMARK   42  A    between atoms: _96  and  _97
REMARK   43  A    between atoms: _97  and  _98
REMARK   44  A    between atoms: _103  and  _105
REMARK   45  A    between atoms: _105  and  _106
REMARK   46  A    between atoms: _105  and  _108
REMARK   47  A    between atoms: _108  and  _109
REMARK   48  A    between atoms: _112  and  _114
REMARK   49  A    between atoms: _114  and  _115
REMARK   50  A    between atoms: _118  and  _120
REMARK   51  A    between atoms: _120  and  _121
REMARK   52  A    between atoms: _123  and  _125
REMARK   53  A    between atoms: _125  and  _126
REMARK   54  A    between atoms: _125  and  _128
REMARK   55  A    between atoms: _128  and  _129
REMARK   56  A    between atoms: _129  and  _130
REMARK   57  A    between atoms: _130  and  _131
REMARK   58  A    between atoms: _140  and  _142
REMARK   59  A    between atoms: _142  and  _143
REMARK   60  A    between atoms: _145  and  _147
REMARK   61  A    between atoms: _147  and  _148
REMARK   62  A    between atoms: _147  and  _150
REMARK   63  A    between atoms: _150  and  _151
REMARK   64  A    between atoms: _151  and  _152
REMARK   65  A    between atoms: _152  and  _153
REMARK   66  A    between atoms: _162  and  _164
REMARK   67  A    between atoms: _164  and  _165
REMARK   68  A    between atoms: _164  and  _167
REMARK   69  A    between atoms: _167  and  _168
REMARK   70  A    between atoms: _173  and  _175
REMARK   71  A    between atoms: _175  and  _176
REMARK   72  A    between atoms: _178  and  _180
REMARK   73  A    between atoms: _180  and  _181
REMARK   74  A    between atoms: _180  and  _183
REMARK   75  A    between atoms: _183  and  _184
REMARK   76  A    between atoms: _184  and  _185
REMARK   77  A    between atoms: _185  and  _186
REMARK   78  A    between atoms: _195  and  _197
REMARK   79  A    between atoms: _197  and  _198
REMARK   80  A    between atoms: _200  and  _202
REMARK   81  A    between atoms: _202  and  _203
REMARK   82  A    between atoms: _202  and  _205
REMARK   83  A    between atoms: _205  and  _206
REMARK   84  A    between atoms: _216  and  _218
REMARK   85  A    between atoms: _218  and  _219
REMARK   86  A    between atoms: _222  and  _224
REMARK   87  A    between atoms: _224  and  _225
REMARK   88  A    between atoms: _228  and  _230
REMARK   89  A    between atoms: _230  and  _231
REMARK   90  A    between atoms: _230  and  _233
REMARK   91  A    between atoms: _233  and  _234
REMARK   92  A    between atoms: _237  and  _239
REMARK   93  A    between atoms: _239  and  _240
REMARK   94  A    between atoms: _243  and  _245
REMARK   95  A    between atoms: _245  and  _246
REMARK   96  A    between atoms: _245  and  _248
REMARK   97  A    between atoms: _248  and  _249
REMARK   98  A    between atoms: _249  and  _250
REMARK   99  A    between atoms: _255  and  _257
REMARK  100  A    between atoms: _257  and  _258
REMARK  101  A    between atoms: _257  and  _260
REMARK  102  A    between atoms: _260  and  _261
REMARK  103  A    between atoms: _264  and  _266
REMARK  104  A    between atoms: _266  and  _267
REMARK  105  A    between atoms: _266  and  _269
REMARK  106  A    between atoms: _269  and  _270
REMARK  107  A    between atoms: _273  and  _275
REMARK  108  A    between atoms: _275  and  _276
REMARK  109  A    between atoms: _275  and  _278
REMARK  110  A    between atoms: _278  and  _279
REMARK  111  A    between atoms: _282  and  _284
REMARK  112  A    between atoms: _284  and  _285
REMARK  113  A    between atoms: _284  and  _287
REMARK  114  A    between atoms: _287  and  _288
REMARK  115  A    between atoms: _290  and  _292
REMARK  116  A    between atoms: _292  and  _293
REMARK  117  A    between atoms: _292  and  _295
REMARK  118  A    between atoms: _298  and  _300
REMARK  119  A    between atoms: _300  and  _301
REMARK  120  A    between atoms: _300  and  _303
REMARK  121  A    between atoms: _303  and  _304
REMARK  122  A    between atoms: _304  and  _305
REMARK  123  A    between atoms: _305  and  _306
REMARK  124  A    between atoms: _306  and  _307
REMARK  125  A    between atoms: _311  and  _313
REMARK  126  A    between atoms: _313  and  _314
REMARK  127  A    between atoms: _313  and  _316
REMARK  128  A    between atoms: _316  and  _317
REMARK  129  A    between atoms: _328  and  _329
REMARK  130  A    between atoms: _334  and  _336
REMARK  131  A    between atoms: _336  and  _337
REMARK  132  A    between atoms: _336  and  _339
REMARK  133  A    between atoms: _339  and  _340
REMARK  134  A    between atoms: _345  and  _347
REMARK  135  A    between atoms: _347  and  _348
REMARK  136  A    between atoms: _347  and  _350
REMARK  137  A    between atoms: _350  and  _351
REMARK  138  A    between atoms: _354  and  _356
REMARK  139  A    between atoms: _356  and  _357
REMARK  140  A    between atoms: _356  and  _359
REMARK  141  A    between atoms: _362  and  _364
REMARK  142  A    between atoms: _364  and  _365
REMARK  143  A    between atoms: _367  and  _369
REMARK  144  A    between atoms: _369  and  _370
REMARK  145  A    between atoms: _369  and  _372
REMARK  146  A    between atoms: _372  and  _373
REMARK  147  A    between atoms: _373  and  _374
REMARK  148  A    between atoms: _374  and  _375
REMARK  149  A    between atoms: _375  and  _376
REMARK  150  A    between atoms: _380  and  _382
REMARK  151  A    between atoms: _382  and  _383
REMARK  152  A    between atoms: _382  and  _385
REMARK  153  A    between atoms: _385  and  _386
REMARK  154  A    between atoms: _389  and  _391
REMARK  155  A    between atoms: _391  and  _392
REMARK  156  A    between atoms: _395  and  _397
REMARK  157  A    between atoms: _397  and  _398
REMARK  158  A    between atoms: _400  and  _402
REMARK  159  A    between atoms: _402  and  _403
REMARK  160  A    between atoms: _402  and  _405
REMARK  161  A    between atoms: _405  and  _406
REMARK  162  A    between atoms: _409  and  _411
REMARK  163  A    between atoms: _411  and  _412
REMARK  164  A    between atoms: _411  and  _414
REMARK  165  A    between atoms: _414  and  _415
REMARK  166  A    between atoms: _418  and  _420
REMARK  167  A    between atoms: _420  and  _421
REMARK  168  A    between atoms: _424  and  _426
REMARK  169  A    between atoms: _426  and  _427
REMARK  170  A    between atoms: _426  and  _429
REMARK  171  A    between atoms: _429  and  _430
REMARK  172  A    between atoms: _430  and  _431
REMARK  173  A    between atoms: _434  and  _436
REMARK  174  A    between atoms: _436  and  _437
REMARK  175  A    between atoms: _436  and  _439
REMARK  176  A    between atoms: _442  and  _444
REMARK  177  A    between atoms: _444  and  _445
REMARK  178  A    between atoms: _444  and  _447
REMARK  179  A    between atoms: _447  and  _448
REMARK  180  A    between atoms: _451  and  _453
REMARK  181  A    between atoms: _453  and  _454
REMARK  182  A    between atoms: _456  and  _458
REMARK  183  A    between atoms: _458  and  _459
REMARK  184  A    between atoms: _458  and  _461
REMARK  185  A    between atoms: _464  and  _466
REMARK  186  A    between atoms: _466  and  _467
REMARK  187  A    between atoms: _469  and  _471
REMARK  188  A    between atoms: _471  and  _472
REMARK  189  A    between atoms: _471  and  _474
REMARK  190  A    between atoms: _474  and  _475
REMARK  191  A    between atoms: _478  and  _480
REMARK  192  A    between atoms: _480  and  _481
REMARK  193  A    between atoms: _480  and  _483
REMARK  194  A    between atoms: _483  and  _484
REMARK  195  A    between atoms: _489  and  _491
REMARK  196  A    between atoms: _491  and  _492
REMARK  197  A    between atoms: _491  and  _494
REMARK  198  A    between atoms: _497  and  _499
REMARK  199  A    between atoms: _499  and  _500
REMARK  200  A    between atoms: _499  and  _502
REMARK  201  A    between atoms: _502  and  _503
REMARK  202  A    between atoms: _503  and  _504
REMARK  203  A    between atoms: _509  and  _511
REMARK  204  A    between atoms: _511  and  _512
REMARK  205  A    between atoms: _516  and  _517
REMARK  206  A    between atoms: _522  and  _524
REMARK  207  A    between atoms: _524  and  _525
REMARK  208  A    between atoms: _524  and  _527
REMARK  209  A    between atoms: _527  and  _528
REMARK  210  A    between atoms: _528  and  _529
REMARK  211  A    between atoms: _532  and  _534
REMARK  212  A    between atoms: _534  and  _535
REMARK  213  A    between atoms: _534  and  _537
REMARK  214  A    between atoms: _540  and  _542
REMARK  215  A    between atoms: _542  and  _543
REMARK  216  A    between atoms: _542  and  _545
REMARK  217  A    between atoms: _545  and  _546
REMARK  218  A    between atoms: _550  and  _551
REMARK  219  A    between atoms: _556  and  _558
REMARK  220  A    between atoms: _558  and  _559
REMARK  221  A    between atoms: _558  and  _561
REMARK  222  A    between atoms: _561  and  _562
REMARK  223  A    between atoms: _565  and  _567
REMARK  224  A    between atoms: _567  and  _568
REMARK  225  A    between atoms: _571  and  _573
REMARK  226  A    between atoms: _573  and  _574
REMARK  227  A    between atoms: _573  and  _576
REMARK  228  A    between atoms: _576  and  _577
REMARK  229  A    between atoms: _580  and  _582
REMARK  230  A    between atoms: _582  and  _583
REMARK  231  A    between atoms: _582  and  _585
REMARK  232  A    between atoms: _585  and  _586
REMARK  233  A    between atoms: _588  and  _590
REMARK  234  A    between atoms: _590  and  _591
REMARK  235  A    between atoms: _593  and  _595
REMARK  236  A    between atoms: _595  and  _596
REMARK  237  A    between atoms: _595  and  _598
REMARK  238  A    between atoms: _598  and  _599
REMARK  239  A    between atoms: _602  and  _604
REMARK  240  A    between atoms: _604  and  _605
REMARK  241  A    between atoms: _604  and  _607
REMARK                            x       y       z     vdW  Elec       q    Type
REMARK                         _______ _______ _______ _____ _____    ______ ____
ROOT
ATOM      1  O   HOH     1      -9.239  -9.118   7.614  0.00  0.00    +0.000 OA
ENDROOT
TORSDOF 0
REMARK  Name = ../refined-set-2016/4xu1/4xu1_pocket.pdb
REMARK  241 active torsions:
REMARK  status: ('A' for Active; 'I' for Inactive)
REMARK    1  A    between atoms: _1  and  _3
REMARK    2  A    between atoms: _3  and  _4
REMARK    3  A    between atoms: _3  and  _6
REMARK    4  A    between atoms: _6  and  _7
REMARK    5  A    between atoms: _10  and  _12
REMARK    6  A    between atoms: _12  and  _13
REMARK    7  A    between atoms: _15  and  _17
REMARK    8  A    between atoms: _17  and  _18
REMARK    9  A    between atoms: _17  and  _20
REMARK   10  A    between atoms: _20  and  _21
REMARK   11  A    between atoms: _23  and  _25
REMARK   12  A    between atoms: _25  and  _26
REMARK   13  A    between atoms: _25  and  _28
REMARK   14  A    between atoms: _28  and  _29
REMARK   15  A    between atoms: _32  and  _34
REMARK   16  A    between atoms: _34  and  _35
REMARK   17  A    between atoms: _34  and  _37
REMARK   18  A    between atoms: _37  and  _38
REMARK   19  A    between atoms: _43  and  _45
REMARK   20  A    between atoms: _45  and  _46
REMARK   21  A    between atoms: _49  and  _51
REMARK   22  A    between atoms: _51  and  _52
REMARK   23  A    between atoms: _51  and  _54
REMARK   24  A    between atoms: _54  and  _55
REMARK   25  A    between atoms: _58  and  _60
REMARK   26  A    between atoms: _60  and  _61
REMARK   27  A    between atoms: _60  and  _63
REMARK   28  A    between atoms: _63  and  _64
REMARK   29  A    between atoms: _67  and  _69
REMARK   30  A    between atoms: _69  and  _70
REMARK   31  A    between atoms: _69  and  _72
REMARK   32  A    between atoms: _72  and  _73
REMARK   33  A    between atoms: _76  and  _78
REMARK   34  A    between atoms: _78  and  _79
REMARK   35  A    between atoms: _78  and  _81
REMARK   36  A    between atoms: _81  and  _82
REMARK   37  A    between atoms: _85  and  _87
REMARK   38  A    between atoms: _87  and  _88
REMARK   39  A    between atoms: _91  and  _93
REMARK   40  A    between atoms: _93  and  _94
REMARK   41  A    between atoms: _93  and  _96
REMARK   42  A    between atoms: _96  and  _97
REMARK   43  A    between atoms: _97  and  _98
REMARK   44  A    between atoms: _103  and  _105
REMARK   45  A    between atoms: _105  and  _106
REMARK   46  A    between atoms: _105  and  _108
REMARK   47  A    between atoms: _108  and  _109
REMARK   48  A    between atoms: _112  and  _114
REMARK   49  A    between atoms: _114  and  _115
REMARK   50  A    between atoms: _118  and  _120
REMARK   51  A    between atoms: _120  and  _121
REMARK   52  A    between atoms: _123  and  _125
REMARK   53  A    between atoms: _125  and  _126
REMARK   54  A    between atoms: _125  and  _128
REMARK   55  A    between atoms: _128  and  _129
REMARK   56  A    between atoms: _129  and  _130
REMARK   57  A    between atoms: _130  and  _131
REMARK   58  A    between atoms: _140  and  _142
REMARK   59  A    between atoms: _142  and  _143
REMARK   60  A    between atoms: _145  and  _147
REMARK   61  A    between atoms: _147  and  _148
REMARK   62  A    between atoms: _147  and  _150
REMARK   63  A    between atoms: _150  and  _151
REMARK   64  A    between atoms: _151  and  _152
REMARK   65  A    between atoms: _152  and  _153
REMARK   66  A    between atoms: _162  and  _164
REMARK   67  A    between atoms: _164  and  _165
REMARK   68  A    between atoms: _164  and  _167
REMARK   69  A    between atoms: _167  and  _168
REMARK   70  A    between atoms: _173  and  _175
REMARK   71  A    between atoms: _175  and  _176
REMARK   72  A    between atoms: _178  and  _180
REMARK   73  A    between atoms: _180  and  _181
REMARK   74  A    between atoms: _180  and  _183
REMARK   75  A    between atoms: _183  and  _184
REMARK   76  A    between atoms: _184  and  _185
REMARK   77  A    between atoms: _185  and  _186
REMARK   78  A    between atoms: _195  and  _197
REMARK   79  A    between atoms: _197  and  _198
REMARK   80  A    between atoms: _200  and  _202
REMARK   81  A    between atoms: _202  and  _203
REMARK   82  A    between atoms: _202  and  _205
REMARK   83  A    between atoms: _205  and  _206
REMARK   84  A    between atoms: _216  and  _218
REMARK   85  A    between atoms: _218  and  _219
REMARK   86  A    between atoms: _222  and  _224
REMARK   87  A    between atoms: _224  and  _225
REMARK   88  A    between atoms: _228  and  _230
REMARK   89  A    between atoms: _230  and  _231
REMARK   90  A    between atoms: _230  and  _233
REMARK   91  A    between atoms: _233  and  _234
REMARK   92  A    between atoms: _237  and  _239
REMARK   93  A    between atoms: _239  and  _240
REMARK   94  A    between atoms: _243  and  _245
REMARK   95  A    between atoms: _245  and  _246
REMARK   96  A    between atoms: _245  and  _248
REMARK   97  A    between atoms: _248  and  _249
REMARK   98  A    between atoms: _249  and  _250
REMARK   99  A    between atoms: _255  and  _257
REMARK  100  A    between atoms: _257  and  _258
REMARK  101  A    between atoms: _257  and  _260
REMARK  102  A    between atoms: _260  and  _261
REMARK  103  A    between atoms: _264  and  _266
REMARK  104  A    between atoms: _266  and  _267
REMARK  105  A    between atoms: _266  and  _269
REMARK  106  A    between atoms: _269  and  _270
REMARK  107  A    between atoms: _273  and  _275
REMARK  108  A    between atoms: _275  and  _276
REMARK  109  A    between atoms: _275  and  _278
REMARK  110  A    between atoms: _278  and  _279
REMARK  111  A    between atoms: _282  and  _284
REMARK  112  A    between atoms: _284  and  _285
REMARK  113  A    between atoms: _284  and  _287
REMARK  114  A    between atoms: _287  and  _288
REMARK  115  A    between atoms: _290  and  _292
REMARK  116  A    between atoms: _292  and  _293
REMARK  117  A    between atoms: _292  and  _295
REMARK  118  A    between atoms: _298  and  _300
REMARK  119  A    between atoms: _300  and  _301
REMARK  120  A    between atoms: _300  and  _303
REMARK  121  A    between atoms: _303  and  _304
REMARK  122  A    between atoms: _304  and  _305
REMARK  123  A    between atoms: _305  and  _306
REMARK  124  A    between atoms: _306  and  _307
REMARK  125  A    between atoms: _311  and  _313
REMARK  126  A    between atoms: _313  and  _314
REMARK  127  A    between atoms: _313  and  _316
REMARK  128  A    between atoms: _316  and  _317
REMARK  129  A    between atoms: _328  and  _329
REMARK  130  A    between atoms: _334  and  _336
REMARK  131  A    between atoms: _336  and  _337
REMARK  132  A    between atoms: _336  and  _339
REMARK  133  A    between atoms: _339  and  _340
REMARK  134  A    between atoms: _345  and  _347
REMARK  135  A    between atoms: _347  and  _348
REMARK  136  A    between atoms: _347  and  _350
REMARK  137  A    between atoms: _350  and  _351
REMARK  138  A    between atoms: _354  and  _356
REMARK  139  A    between atoms: _356  and  _357
REMARK  140  A    between atoms: _356  and  _359
REMARK  141  A    between atoms: _362  and  _364
REMARK  142  A    between atoms: _364  and  _365
REMARK  143  A    between atoms: _367  and  _369
REMARK  144  A    between atoms: _369  and  _370
REMARK  145  A    between atoms: _369  and  _372
REMARK  146  A    between atoms: _372  and  _373
REMARK  147  A    between atoms: _373  and  _374
REMARK  148  A    between atoms: _374  and  _375
REMARK  149  A    between atoms: _375  and  _376
REMARK  150  A    between atoms: _380  and  _382
REMARK  151  A    between atoms: _382  and  _383
REMARK  152  A    between atoms: _382  and  _385
REMARK  153  A    between atoms: _385  and  _386
REMARK  154  A    between atoms: _389  and  _391
REMARK  155  A    between atoms: _391  and  _392
REMARK  156  A    between atoms: _395  and  _397
REMARK  157  A    between atoms: _397  and  _398
REMARK  158  A    between atoms: _400  and  _402
REMARK  159  A    between atoms: _402  and  _403
REMARK  160  A    between atoms: _402  and  _405
REMARK  161  A    between atoms: _405  and  _406
REMARK  162  A    between atoms: _409  and  _411
REMARK  163  A    between atoms: _411  and  _412
REMARK  164  A    between atoms: _411  and  _414
REMARK  165  A    between atoms: _414  and  _415
REMARK  166  A    between atoms: _418  and  _420
REMARK  167  A    between atoms: _420  and  _421
REMARK  168  A    between atoms: _424  and  _426
REMARK  169  A    between atoms: _426  and  _427
REMARK  170  A    between atoms: _426  and  _429
REMARK  171  A    between atoms: _429  and  _430
REMARK  172  A    between atoms: _430  and  _431
REMARK  173  A    between atoms: _434  and  _436
REMARK  174  A    between atoms: _436  and  _437
REMARK  175  A    between atoms: _436  and  _439
REMARK  176  A    between atoms: _442  and  _444
REMARK  177  A    between atoms: _444  and  _445
REMARK  178  A    between atoms: _444  and  _447
REMARK  179  A    between atoms: _447  and  _448
REMARK  180  A    between atoms: _451  and  _453
REMARK  181  A    between atoms: _453  and  _454
REMARK  182  A    between atoms: _456  and  _458
REMARK  183  A    between atoms: _458  and  _459
REMARK  184  A    between atoms: _458  and  _461
REMARK  185  A    between atoms: _464  and  _466
REMARK  186  A    between atoms: _466  and  _467
REMARK  187  A    between atoms: _469  and  _471
REMARK  188  A    between atoms: _471  and  _472
REMARK  189  A    between atoms: _471  and  _474
REMARK  190  A    between atoms: _474  and  _475
REMARK  191  A    between atoms: _478  and  _480
REMARK  192  A    between atoms: _480  and  _481
REMARK  193  A    between atoms: _480  and  _483
REMARK  194  A    between atoms: _483  and  _484
REMARK  195  A    between atoms: _489  and  _491
REMARK  196  A    between atoms: _491  and  _492
REMARK  197  A    between atoms: _491  and  _494
REMARK  198  A    between atoms: _497  and  _499
REMARK  199  A    between atoms: _499  and  _500
REMARK  200  A    between atoms: _499  and  _502
REMARK  201  A    between atoms: _502  and  _503
REMARK  202  A    between atoms: _503  and  _504
REMARK  203  A    between atoms: _509  and  _511
REMARK  204  A    between atoms: _511  and  _512
REMARK  205  A    between atoms: _516  and  _517
REMARK  206  A    between atoms: _522  and  _524
REMARK  207  A    between atoms: _524  and  _525
REMARK  208  A    between atoms: _524  and  _527
REMARK  209  A    between atoms: _527  and  _528
REMARK  210  A    between atoms: _528  and  _529
REMARK  211  A    between atoms: _532  and  _534
REMARK  212  A    between atoms: _534  and  _535
REMARK  213  A    between atoms: _534  and  _537
REMARK  214  A    between atoms: _540  and  _542
REMARK  215  A    between atoms: _542  and  _543
REMARK  216  A    between atoms: _542  and  _545
REMARK  217  A    between atoms: _545  and  _546
REMARK  218  A    between atoms: _550  and  _551
REMARK  219  A    between atoms: _556  and  _558
REMARK  220  A    between atoms: _558  and  _559
REMARK  221  A    between atoms: _558  and  _561
REMARK  222  A    between atoms: _561  and  _562
REMARK  223  A    between atoms: _565  and  _567
REMARK  224  A    between atoms: _567  and  _568
REMARK  225  A    between atoms: _571  and  _573
REMARK  226  A    between atoms: _573  and  _574
REMARK  227  A    between atoms: _573  and  _576
REMARK  228  A    between atoms: _576  and  _577
REMARK  229  A    between atoms: _580  and  _582
REMARK  230  A    between atoms: _582  and  _583
REMARK  231  A    between atoms: _582  and  _585
REMARK  232  A    between atoms: _585  and  _586
REMARK  233  A    between atoms: _588  and  _590
REMARK  234  A    between atoms: _590  and  _591
REMARK  235  A    between atoms: _593  and  _595
REMARK  236  A    between atoms: _595  and  _596
REMARK  237  A    between atoms: _595  and  _598
REMARK  238  A    between atoms: _598  and  _599
REMARK  239  A    between atoms: _602  and  _604
REMARK  240  A    between atoms: _604  and  _605
REMARK  241  A    between atoms: _604  and  _607
REMARK                            x       y       z     vdW  Elec       q    Type
REMARK                         _______ _______ _______ _____ _____    ______ ____
ROOT
ATOM      1  O   HOH     1      -6.378  -3.550   3.840  0.00  0.00    +0.000 OA
ENDROOT
TORSDOF 0
REMARK  Name = ../refined-set-2016/4xu1/4xu1_pocket.pdb
REMARK  241 active torsions:
REMARK  status: ('A' for Active; 'I' for Inactive)
REMARK    1  A    between atoms: _1  and  _3
REMARK    2  A    between atoms: _3  and  _4
REMARK    3  A    between atoms: _3  and  _6
REMARK    4  A    between atoms: _6  and  _7
REMARK    5  A    between atoms: _10  and  _12
REMARK    6  A    between atoms: _12  and  _13
REMARK    7  A    between atoms: _15  and  _17
REMARK    8  A    between atoms: _17  and  _18
REMARK    9  A    between atoms: _17  and  _20
REMARK   10  A    between atoms: _20  and  _21
REMARK   11  A    between atoms: _23  and  _25
REMARK   12  A    between atoms: _25  and  _26
REMARK   13  A    between atoms: _25  and  _28
REMARK   14  A    between atoms: _28  and  _29
REMARK   15  A    between atoms: _32  and  _34
REMARK   16  A    between atoms: _34  and  _35
REMARK   17  A    between atoms: _34  and  _37
REMARK   18  A    between atoms: _37  and  _38
REMARK   19  A    between atoms: _43  and  _45
REMARK   20  A    between atoms: _45  and  _46
REMARK   21  A    between atoms: _49  and  _51
REMARK   22  A    between atoms: _51  and  _52
REMARK   23  A    between atoms: _51  and  _54
REMARK   24  A    between atoms: _54  and  _55
REMARK   25  A    between atoms: _58  and  _60
REMARK   26  A    between atoms: _60  and  _61
REMARK   27  A    between atoms: _60  and  _63
REMARK   28  A    between atoms: _63  and  _64
REMARK   29  A    between atoms: _67  and  _69
REMARK   30  A    between atoms: _69  and  _70
REMARK   31  A    between atoms: _69  and  _72
REMARK   32  A    between atoms: _72  and  _73
REMARK   33  A    between atoms: _76  and  _78
REMARK   34  A    between atoms: _78  and  _79
REMARK   35  A    between atoms: _78  and  _81
REMARK   36  A    between atoms: _81  and  _82
REMARK   37  A    between atoms: _85  and  _87
REMARK   38  A    between atoms: _87  and  _88
REMARK   39  A    between atoms: _91  and  _93
REMARK   40  A    between atoms: _93  and  _94
REMARK   41  A    between atoms: _93  and  _96
REMARK   42  A    between atoms: _96  and  _97
REMARK   43  A    between atoms: _97  and  _98
REMARK   44  A    between atoms: _103  and  _105
REMARK   45  A    between atoms: _105  and  _106
REMARK   46  A    between atoms: _105  and  _108
REMARK   47  A    between atoms: _108  and  _109
REMARK   48  A    between atoms: _112  and  _114
REMARK   49  A    between atoms: _114  and  _115
REMARK   50  A    between atoms: _118  and  _120
REMARK   51  A    between atoms: _120  and  _121
REMARK   52  A    between atoms: _123  and  _125
REMARK   53  A    between atoms: _125  and  _126
REMARK   54  A    between atoms: _125  and  _128
REMARK   55  A    between atoms: _128  and  _129
REMARK   56  A    between atoms: _129  and  _130
REMARK   57  A    between atoms: _130  and  _131
REMARK   58  A    between atoms: _140  and  _142
REMARK   59  A    between atoms: _142  and  _143
REMARK   60  A    between atoms: _145  and  _147
REMARK   61  A    between atoms: _147  and  _148
REMARK   62  A    between atoms: _147  and  _150
REMARK   63  A    between atoms: _150  and  _151
REMARK   64  A    between atoms: _151  and  _152
REMARK   65  A    between atoms: _152  and  _153
REMARK   66  A    between atoms: _162  and  _164
REMARK   67  A    between atoms: _164  and  _165
REMARK   68  A    between atoms: _164  and  _167
REMARK   69  A    between atoms: _167  and  _168
REMARK   70  A    between atoms: _173  and  _175
REMARK   71  A    between atoms: _175  and  _176
REMARK   72  A    between atoms: _178  and  _180
REMARK   73  A    between atoms: _180  and  _181
REMARK   74  A    between atoms: _180  and  _183
REMARK   75  A    between atoms: _183  and  _184
REMARK   76  A    between atoms: _184  and  _185
REMARK   77  A    between atoms: _185  and  _186
REMARK   78  A    between atoms: _195  and  _197
REMARK   79  A    between atoms: _197  and  _198
REMARK   80  A    between atoms: _200  and  _202
REMARK   81  A    between atoms: _202  and  _203
REMARK   82  A    between atoms: _202  and  _205
REMARK   83  A    between atoms: _205  and  _206
REMARK   84  A    between atoms: _216  and  _218
REMARK   85  A    between atoms: _218  and  _219
REMARK   86  A    between atoms: _222  and  _224
REMARK   87  A    between atoms: _224  and  _225
REMARK   88  A    between atoms: _228  and  _230
REMARK   89  A    between atoms: _230  and  _231
REMARK   90  A    between atoms: _230  and  _233
REMARK   91  A    between atoms: _233  and  _234
REMARK   92  A    between atoms: _237  and  _239
REMARK   93  A    between atoms: _239  and  _240
REMARK   94  A    between atoms: _243  and  _245
REMARK   95  A    between atoms: _245  and  _246
REMARK   96  A    between atoms: _245  and  _248
REMARK   97  A    between atoms: _248  and  _249
REMARK   98  A    between atoms: _249  and  _250
REMARK   99  A    between atoms: _255  and  _257
REMARK  100  A    between atoms: _257  and  _258
REMARK  101  A    between atoms: _257  and  _260
REMARK  102  A    between atoms: _260  and  _261
REMARK  103  A    between atoms: _264  and  _266
REMARK  104  A    between atoms: _266  and  _267
REMARK  105  A    between atoms: _266  and  _269
REMARK  106  A    between atoms: _269  and  _270
REMARK  107  A    between atoms: _273  and  _275
REMARK  108  A    between atoms: _275  and  _276
REMARK  109  A    between atoms: _275  and  _278
REMARK  110  A    between atoms: _278  and  _279
REMARK  111  A    between atoms: _282  and  _284
REMARK  112  A    between atoms: _284  and  _285
REMARK  113  A    between atoms: _284  and  _287
REMARK  114  A    between atoms: _287  and  _288
REMARK  115  A    between atoms: _290  and  _292
REMARK  116  A    between atoms: _292  and  _293
REMARK  117  A    between atoms: _292  and  _295
REMARK  118  A    between atoms: _298  and  _300
REMARK  119  A    between atoms: _300  and  _301
REMARK  120  A    between atoms: _300  and  _303
REMARK  121  A    between atoms: _303  and  _304
REMARK  122  A    between atoms: _304  and  _305
REMARK  123  A    between atoms: _305  and  _306
REMARK  124  A    between atoms: _306  and  _307
REMARK  125  A    between atoms: _311  and  _313
REMARK  126  A    between atoms: _313  and  _314
REMARK  127  A    between atoms: _313  and  _316
REMARK  128  A    between atoms: _316  and  _317
REMARK  129  A    between atoms: _328  and  _329
REMARK  130  A    between atoms: _334  and  _336
REMARK  131  A    between atoms: _336  and  _337
REMARK  132  A    between atoms: _336  and  _339
REMARK  133  A    between atoms: _339  and  _340
REMARK  134  A    between atoms: _345  and  _347
REMARK  135  A    between atoms: _347  and  _348
REMARK  136  A    between atoms: _347  and  _350
REMARK  137  A    between atoms: _350  and  _351
REMARK  138  A    between atoms: _354  and  _356
REMARK  139  A    between atoms: _356  and  _357
REMARK  140  A    between atoms: _356  and  _359
REMARK  141  A    between atoms: _362  and  _364
REMARK  142  A    between atoms: _364  and  _365
REMARK  143  A    between atoms: _367  and  _369
REMARK  144  A    between atoms: _369  and  _370
REMARK  145  A    between atoms: _369  and  _372
REMARK  146  A    between atoms: _372  and  _373
REMARK  147  A    between atoms: _373  and  _374
REMARK  148  A    between atoms: _374  and  _375
REMARK  149  A    between atoms: _375  and  _376
REMARK  150  A    between atoms: _380  and  _382
REMARK  151  A    between atoms: _382  and  _383
REMARK  152  A    between atoms: _382  and  _385
REMARK  153  A    between atoms: _385  and  _386
REMARK  154  A    between atoms: _389  and  _391
REMARK  155  A    between atoms: _391  and  _392
REMARK  156  A    between atoms: _395  and  _397
REMARK  157  A    between atoms: _397  and  _398
REMARK  158  A    between atoms: _400  and  _402
REMARK  159  A    between atoms: _402  and  _403
REMARK  160  A    between atoms: _402  and  _405
REMARK  161  A    between atoms: _405  and  _406
REMARK  162  A    between atoms: _409  and  _411
REMARK  163  A    between atoms: _411  and  _412
REMARK  164  A    between atoms: _411  and  _414
REMARK  165  A    between atoms: _414  and  _415
REMARK  166  A    between atoms: _418  and  _420
REMARK  167  A    between atoms: _420  and  _421
REMARK  168  A    between atoms: _424  and  _426
REMARK  169  A    between atoms: _426  and  _427
REMARK  170  A    between atoms: _426  and  _429
REMARK  171  A    between atoms: _429  and  _430
REMARK  172  A    between atoms: _430  and  _431
REMARK  173  A    between atoms: _434  and  _436
REMARK  174  A    between atoms: _436  and  _437
REMARK  175  A    between atoms: _436  and  _439
REMARK  176  A    between atoms: _442  and  _444
REMARK  177  A    between atoms: _444  and  _445
REMARK  178  A    between atoms: _444  and  _447
REMARK  179  A    between atoms: _447  and  _448
REMARK  180  A    between atoms: _451  and  _453
REMARK  181  A    between atoms: _453  and  _454
REMARK  182  A    between atoms: _456  and  _458
REMARK  183  A    between atoms: _458  and  _459
REMARK  184  A    between atoms: _458  and  _461
REMARK  185  A    between atoms: _464  and  _466
REMARK  186  A    between atoms: _466  and  _467
REMARK  187  A    between atoms: _469  and  _471
REMARK  188  A    between atoms: _471  and  _472
REMARK  189  A    between atoms: _471  and  _474
REMARK  190  A    between atoms: _474  and  _475
REMARK  191  A    between atoms: _478  and  _480
REMARK  192  A    between atoms: _480  and  _481
REMARK  193  A    between atoms: _480  and  _483
REMARK  194  A    between atoms: _483  and  _484
REMARK  195  A    between atoms: _489  and  _491
REMARK  196  A    between atoms: _491  and  _492
REMARK  197  A    between atoms: _491  and  _494
REMARK  198  A    between atoms: _497  and  _499
REMARK  199  A    between atoms: _499  and  _500
REMARK  200  A    between atoms: _499  and  _502
REMARK  201  A    between atoms: _502  and  _503
REMARK  202  A    between atoms: _503  and  _504
REMARK  203  A    between atoms: _509  and  _511
REMARK  204  A    between atoms: _511  and  _512
REMARK  205  A    between atoms: _516  and  _517
REMARK  206  A    between atoms: _522  and  _524
REMARK  207  A    between atoms: _524  and  _525
REMARK  208  A    between atoms: _524  and  _527
REMARK  209  A    between atoms: _527  and  _528
REMARK  210  A    between atoms: _528  and  _529
REMARK  211  A    between atoms: _532  and  _534
REMARK  212  A    between atoms: _534  and  _535
REMARK  213  A    between atoms: _534  and  _537
REMARK  214  A    between atoms: _540  and  _542
REMARK  215  A    between atoms: _542  and  _543
REMARK  216  A    between atoms: _542  and  _545
REMARK  217  A    between atoms: _545  and  _546
REMARK  218  A    between atoms: _550  and  _551
REMARK  219  A    between atoms: _556  and  _558
REMARK  220  A    between atoms: _558  and  _559
REMARK  221  A    between atoms: _558  and  _561
REMARK  222  A    between atoms: _561  and  _562
REMARK  223  A    between atoms: _565  and  _567
REMARK  224  A    between atoms: _567  and  _568
REMARK  225  A    between atoms: _571  and  _573
REMARK  226  A    between atoms: _573  and  _574
REMARK  227  A    between atoms: _573  and  _576
REMARK  228  A    between atoms: _576  and  _577
REMARK  229  A    between atoms: _580  and  _582
REMARK  230  A    between atoms: _582  and  _583
REMARK  231  A    between atoms: _582  and  _585
REMARK  232  A    between atoms: _585  and  _586
REMARK  233  A    between atoms: _588  and  _590
REMARK  234  A    between atoms: _590  and  _591
REMARK  235  A    between atoms: _593  and  _595
REMARK  236  A    between atoms: _595  and  _596
REMARK  237  A    between atoms: _595  and  _598
REMARK  238  A    between atoms: _598  and  _599
REMARK  239  A    between atoms: _602  and  _604
REMARK  240  A    between atoms: _604  and  _605
REMARK  241  A    between atoms: _604  and  _607
REMARK                            x       y       z     vdW  Elec       q    Type
REMARK                         _______ _______ _______ _____ _____    ______ ____
ROOT
ATOM      1  O   HOH     1       7.820 -11.489  12.710  0.00  0.00    +0.000 OA
ENDROOT
TORSDOF 0
