REMARK  Name = ../refined-set-2016/1k6p/1k6p_pocket.pdb
REMARK  229 active torsions:
REMARK  status: ('A' for Active; 'I' for Inactive)
REMARK    1  A    between atoms: _1  and  _3
REMARK    2  A    between atoms: _3  and  _4
REMARK    3  A    between atoms: _3  and  _6
REMARK    4  A    between atoms: _6  and  _7
REMARK    5  A    between atoms: _7  and  _8
REMARK    6  A    between atoms: _8  and  _9
REMARK    7  A    between atoms: _18  and  _20
REMARK    8  A    between atoms: _20  and  _21
REMARK    9  A    between atoms: _20  and  _23
REMARK   10  A    between atoms: _23  and  _24
REMARK   11  A    between atoms: _27  and  _29
REMARK   12  A    between atoms: _29  and  _30
REMARK   13  A    between atoms: _29  and  _32
REMARK   14  A    between atoms: _32  and  _33
REMARK   15  A    between atoms: _36  and  _38
REMARK   16  A    between atoms: _38  and  _39
REMARK   17  A    between atoms: _38  and  _41
REMARK   18  A    between atoms: _41  and  _42
REMARK   19  A    between atoms: _45  and  _47
REMARK   20  A    between atoms: _47  and  _48
REMARK   21  A    between atoms: _47  and  _50
REMARK   22  A    between atoms: _50  and  _51
REMARK   23  A    between atoms: _54  and  _56
REMARK   24  A    between atoms: _56  and  _57
REMARK   25  A    between atoms: _56  and  _59
REMARK   26  A    between atoms: _59  and  _60
REMARK   27  A    between atoms: _63  and  _65
REMARK   28  A    between atoms: _65  and  _66
REMARK   29  A    between atoms: _68  and  _70
REMARK   30  A    between atoms: _70  and  _71
REMARK   31  A    between atoms: _74  and  _76
REMARK   32  A    between atoms: _76  and  _77
REMARK   33  A    between atoms: _76  and  _79
REMARK   34  A    between atoms: _79  and  _80
REMARK   35  A    between atoms: _83  and  _85
REMARK   36  A    between atoms: _85  and  _86
REMARK   37  A    between atoms: _85  and  _88
REMARK   38  A    between atoms: _88  and  _89
REMARK   39  A    between atoms: _92  and  _94
REMARK   40  A    between atoms: _94  and  _95
REMARK   41  A    between atoms: _94  and  _97
REMARK   42  A    between atoms: _97  and  _98
REMARK   43  A    between atoms: _101  and  _103
REMARK   44  A    between atoms: _103  and  _104
REMARK   45  A    between atoms: _103  and  _106
REMARK   46  A    between atoms: _109  and  _111
REMARK   47  A    between atoms: _111  and  _112
REMARK   48  A    between atoms: _111  and  _114
REMARK   49  A    between atoms: _114  and  _115
REMARK   50  A    between atoms: _115  and  _116
REMARK   51  A    between atoms: _118  and  _120
REMARK   52  A    between atoms: _120  and  _121
REMARK   53  A    between atoms: _120  and  _123
REMARK   54  A    between atoms: _123  and  _124
REMARK   55  A    between atoms: _127  and  _129
REMARK   56  A    between atoms: _129  and  _130
REMARK   57  A    between atoms: _132  and  _134
REMARK   58  A    between atoms: _134  and  _135
REMARK   59  A    between atoms: _137  and  _139
REMARK   60  A    between atoms: _139  and  _140
REMARK   61  A    between atoms: _139  and  _142
REMARK   62  A    between atoms: _142  and  _143
REMARK   63  A    between atoms: _146  and  _148
REMARK   64  A    between atoms: _148  and  _149
REMARK   65  A    between atoms: _151  and  _153
REMARK   66  A    between atoms: _153  and  _154
REMARK   67  A    between atoms: _156  and  _158
REMARK   68  A    between atoms: _158  and  _159
REMARK   69  A    between atoms: _158  and  _161
REMARK   70  A    between atoms: _161  and  _162
REMARK   71  A    between atoms: _168  and  _170
REMARK   72  A    between atoms: _170  and  _171
REMARK   73  A    between atoms: _170  and  _173
REMARK   74  A    between atoms: _173  and  _174
REMARK   75  A    between atoms: _177  and  _179
REMARK   76  A    between atoms: _179  and  _180
REMARK   77  A    between atoms: _179  and  _182
REMARK   78  A    between atoms: _185  and  _187
REMARK   79  A    between atoms: _187  and  _188
REMARK   80  A    between atoms: _187  and  _190
REMARK   81  A    between atoms: _190  and  _191
REMARK   82  A    between atoms: _194  and  _196
REMARK   83  A    between atoms: _196  and  _197
REMARK   84  A    between atoms: _196  and  _199
REMARK   85  A    between atoms: _199  and  _200
REMARK   86  A    between atoms: _204  and  _205
REMARK   87  A    between atoms: _210  and  _212
REMARK   88  A    between atoms: _212  and  _213
REMARK   89  A    between atoms: _212  and  _215
REMARK   90  A    between atoms: _215  and  _216
REMARK   91  A    between atoms: _219  and  _221
REMARK   92  A    between atoms: _221  and  _222
REMARK   93  A    between atoms: _221  and  _224
REMARK   94  A    between atoms: _224  and  _225
REMARK   95  A    between atoms: _230  and  _232
REMARK   96  A    between atoms: _232  and  _233
REMARK   97  A    between atoms: _232  and  _235
REMARK   98  A    between atoms: _238  and  _240
REMARK   99  A    between atoms: _240  and  _241
REMARK  100  A    between atoms: _240  and  _243
REMARK  101  A    between atoms: _243  and  _244
REMARK  102  A    between atoms: _247  and  _249
REMARK  103  A    between atoms: _249  and  _250
REMARK  104  A    between atoms: _252  and  _254
REMARK  105  A    between atoms: _254  and  _255
REMARK  106  A    between atoms: _254  and  _257
REMARK  107  A    between atoms: _257  and  _258
REMARK  108  A    between atoms: _258  and  _259
REMARK  109  A    between atoms: _259  and  _260
REMARK  110  A    between atoms: _269  and  _271
REMARK  111  A    between atoms: _271  and  _272
REMARK  112  A    between atoms: _271  and  _274
REMARK  113  A    between atoms: _274  and  _275
REMARK  114  A    between atoms: _275  and  _276
REMARK  115  A    between atoms: _276  and  _277
REMARK  116  A    between atoms: _286  and  _288
REMARK  117  A    between atoms: _288  and  _289
REMARK  118  A    between atoms: _288  and  _291
REMARK  119  A    between atoms: _291  and  _292
REMARK  120  A    between atoms: _295  and  _297
REMARK  121  A    between atoms: _297  and  _298
REMARK  122  A    between atoms: _297  and  _300
REMARK  123  A    between atoms: _300  and  _301
REMARK  124  A    between atoms: _304  and  _306
REMARK  125  A    between atoms: _306  and  _307
REMARK  126  A    between atoms: _306  and  _309
REMARK  127  A    between atoms: _309  and  _310
REMARK  128  A    between atoms: _313  and  _315
REMARK  129  A    between atoms: _315  and  _316
REMARK  130  A    between atoms: _315  and  _318
REMARK  131  A    between atoms: _318  and  _319
REMARK  132  A    between atoms: _322  and  _324
REMARK  133  A    between atoms: _324  and  _325
REMARK  134  A    between atoms: _327  and  _329
REMARK  135  A    between atoms: _329  and  _330
REMARK  136  A    between atoms: _333  and  _335
REMARK  137  A    between atoms: _335  and  _336
REMARK  138  A    between atoms: _335  and  _338
REMARK  139  A    between atoms: _338  and  _339
REMARK  140  A    between atoms: _342  and  _344
REMARK  141  A    between atoms: _344  and  _345
REMARK  142  A    between atoms: _344  and  _347
REMARK  143  A    between atoms: _347  and  _348
REMARK  144  A    between atoms: _351  and  _353
REMARK  145  A    between atoms: _353  and  _354
REMARK  146  A    between atoms: _353  and  _356
REMARK  147  A    between atoms: _356  and  _357
REMARK  148  A    between atoms: _360  and  _362
REMARK  149  A    between atoms: _362  and  _363
REMARK  150  A    between atoms: _362  and  _365
REMARK  151  A    between atoms: _368  and  _370
REMARK  152  A    between atoms: _370  and  _371
REMARK  153  A    between atoms: _370  and  _373
REMARK  154  A    between atoms: _373  and  _374
REMARK  155  A    between atoms: _377  and  _379
REMARK  156  A    between atoms: _379  and  _380
REMARK  157  A    between atoms: _379  and  _382
REMARK  158  A    between atoms: _382  and  _383
REMARK  159  A    between atoms: _383  and  _384
REMARK  160  A    between atoms: _384  and  _385
REMARK  161  A    between atoms: _385  and  _386
REMARK  162  A    between atoms: _390  and  _392
REMARK  163  A    between atoms: _392  and  _393
REMARK  164  A    between atoms: _392  and  _395
REMARK  165  A    between atoms: _395  and  _396
REMARK  166  A    between atoms: _396  and  _397
REMARK  167  A    between atoms: _399  and  _401
REMARK  168  A    between atoms: _401  and  _402
REMARK  169  A    between atoms: _401  and  _404
REMARK  170  A    between atoms: _404  and  _405
REMARK  171  A    between atoms: _408  and  _410
REMARK  172  A    between atoms: _410  and  _411
REMARK  173  A    between atoms: _413  and  _415
REMARK  174  A    between atoms: _415  and  _416
REMARK  175  A    between atoms: _418  and  _420
REMARK  176  A    between atoms: _420  and  _421
REMARK  177  A    between atoms: _420  and  _423
REMARK  178  A    between atoms: _423  and  _424
REMARK  179  A    between atoms: _427  and  _429
REMARK  180  A    between atoms: _429  and  _430
REMARK  181  A    between atoms: _432  and  _434
REMARK  182  A    between atoms: _434  and  _435
REMARK  183  A    between atoms: _437  and  _439
REMARK  184  A    between atoms: _439  and  _440
REMARK  185  A    between atoms: _439  and  _442
REMARK  186  A    between atoms: _442  and  _443
REMARK  187  A    between atoms: _449  and  _451
REMARK  188  A    between atoms: _451  and  _452
REMARK  189  A    between atoms: _451  and  _454
REMARK  190  A    between atoms: _454  and  _455
REMARK  191  A    between atoms: _458  and  _460
REMARK  192  A    between atoms: _460  and  _461
REMARK  193  A    between atoms: _460  and  _463
REMARK  194  A    between atoms: _466  and  _468
REMARK  195  A    between atoms: _468  and  _469
REMARK  196  A    between atoms: _468  and  _471
REMARK  197  A    between atoms: _471  and  _472
REMARK  198  A    between atoms: _475  and  _477
REMARK  199  A    between atoms: _477  and  _478
REMARK  200  A    between atoms: _477  and  _480
REMARK  201  A    between atoms: _480  and  _481
REMARK  202  A    between atoms: _485  and  _486
REMARK  203  A    between atoms: _491  and  _493
REMARK  204  A    between atoms: _493  and  _494
REMARK  205  A    between atoms: _493  and  _496
REMARK  206  A    between atoms: _496  and  _497
REMARK  207  A    between atoms: _500  and  _502
REMARK  208  A    between atoms: _502  and  _503
REMARK  209  A    between atoms: _502  and  _505
REMARK  210  A    between atoms: _505  and  _506
REMARK  211  A    between atoms: _511  and  _513
REMARK  212  A    between atoms: _513  and  _514
REMARK  213  A    between atoms: _513  and  _516
REMARK  214  A    between atoms: _519  and  _521
REMARK  215  A    between atoms: _521  and  _522
REMARK  216  A    between atoms: _521  and  _524
REMARK  217  A    between atoms: _524  and  _525
REMARK  218  A    between atoms: _528  and  _530
REMARK  219  A    between atoms: _530  and  _531
REMARK  220  A    between atoms: _533  and  _535
REMARK  221  A    between atoms: _535  and  _536
REMARK  222  A    between atoms: _535  and  _538
REMARK  223  A    between atoms: _538  and  _539
REMARK  224  A    between atoms: _539  and  _540
REMARK  225  A    between atoms: _540  and  _541
REMARK  226  A    between atoms: _550  and  _552
REMARK  227  A    between atoms: _552  and  _553
REMARK  228  A    between atoms: _552  and  _555
REMARK  229  A    between atoms: _555  and  _556
REMARK                            x       y       z     vdW  Elec       q    Type
REMARK                         _______ _______ _______ _____ _____    ______ ____
ROOT
ATOM      1  NE  ARG A   1       6.463   8.576  11.293  0.00  0.00    -0.265 N 
ATOM      2  HE  ARG A   1       5.438   8.672  11.444  0.00  0.00    +0.259 HD
ATOM      3  CZ  ARG A   1       6.875   7.947  10.198  0.00  0.00    +0.342 C 
ATOM      4  NH2 ARG A   1       8.174   7.802   9.965  0.00  0.00    -0.292 N 
ATOM      5 HH21 ARG A   1       8.869   8.181  10.640  0.00  0.00    +0.255 HD
ATOM      6 HH22 ARG A   1       8.497   7.310   9.108  0.00  0.00    +0.255 HD
ATOM      7  NH1 ARG A   1       5.990   7.460   9.338  0.00  0.00    -0.292 N 
ATOM      8 HH11 ARG A   1       4.972   7.570   9.521  0.00  0.00    +0.255 HD
ATOM      9 HH12 ARG A   1       6.314   6.968   8.481  0.00  0.00    +0.255 HD
ENDROOT
BRANCH   1  10
ATOM     10  CD  ARG A   1       7.358   9.141  12.298  0.00  0.00    +0.174 C 
BRANCH  10  11
ATOM     11  CG  ARG A   1       6.588   9.855  13.379  0.00  0.00    +0.045 C 
BRANCH  11  12
ATOM     12  CB  ARG A   1       7.501  10.351  14.474  0.00  0.00    +0.029 C 
BRANCH  12  13
ATOM     13  CA  ARG A   1       6.746  10.958  15.655  0.00  0.00    +0.133 C 
BRANCH  13  14
ATOM     14  N   ARG A   1       6.105  12.204  15.266  0.00  0.00    -0.239 NA
ATOM     15  H   ARG A   1       6.153  12.518  14.276  0.00  0.00    +0.142 HD
ENDBRANCH  13  14
BRANCH  13  16
ATOM     16  C   ARG A   1       7.721  11.270  16.773  0.00  0.00    +0.224 C 
ATOM     17  O   ARG A   1       8.494  12.224  16.682  0.00  0.00    -0.287 OA
ENDBRANCH  13  16
ENDBRANCH  12  13
ENDBRANCH  11  12
ENDBRANCH  10  11
ENDBRANCH   1  10
TORSDOF 6
REMARK  Name = ../refined-set-2016/1k6p/1k6p_pocket.pdb
REMARK  229 active torsions:
REMARK  status: ('A' for Active; 'I' for Inactive)
REMARK    1  A    between atoms: _1  and  _3
REMARK    2  A    between atoms: _3  and  _4
REMARK    3  A    between atoms: _3  and  _6
REMARK    4  A    between atoms: _6  and  _7
REMARK    5  A    between atoms: _7  and  _8
REMARK    6  A    between atoms: _8  and  _9
REMARK    7  A    between atoms: _18  and  _20
REMARK    8  A    between atoms: _20  and  _21
REMARK    9  A    between atoms: _20  and  _23
REMARK   10  A    between atoms: _23  and  _24
REMARK   11  A    between atoms: _27  and  _29
REMARK   12  A    between atoms: _29  and  _30
REMARK   13  A    between atoms: _29  and  _32
REMARK   14  A    between atoms: _32  and  _33
REMARK   15  A    between atoms: _36  and  _38
REMARK   16  A    between atoms: _38  and  _39
REMARK   17  A    between atoms: _38  and  _41
REMARK   18  A    between atoms: _41  and  _42
REMARK   19  A    between atoms: _45  and  _47
REMARK   20  A    between atoms: _47  and  _48
REMARK   21  A    between atoms: _47  and  _50
REMARK   22  A    between atoms: _50  and  _51
REMARK   23  A    between atoms: _54  and  _56
REMARK   24  A    between atoms: _56  and  _57
REMARK   25  A    between atoms: _56  and  _59
REMARK   26  A    between atoms: _59  and  _60
REMARK   27  A    between atoms: _63  and  _65
REMARK   28  A    between atoms: _65  and  _66
REMARK   29  A    between atoms: _68  and  _70
REMARK   30  A    between atoms: _70  and  _71
REMARK   31  A    between atoms: _74  and  _76
REMARK   32  A    between atoms: _76  and  _77
REMARK   33  A    between atoms: _76  and  _79
REMARK   34  A    between atoms: _79  and  _80
REMARK   35  A    between atoms: _83  and  _85
REMARK   36  A    between atoms: _85  and  _86
REMARK   37  A    between atoms: _85  and  _88
REMARK   38  A    between atoms: _88  and  _89
REMARK   39  A    between atoms: _92  and  _94
REMARK   40  A    between atoms: _94  and  _95
REMARK   41  A    between atoms: _94  and  _97
REMARK   42  A    between atoms: _97  and  _98
REMARK   43  A    between atoms: _101  and  _103
REMARK   44  A    between atoms: _103  and  _104
REMARK   45  A    between atoms: _103  and  _106
REMARK   46  A    between atoms: _109  and  _111
REMARK   47  A    between atoms: _111  and  _112
REMARK   48  A    between atoms: _111  and  _114
REMARK   49  A    between atoms: _114  and  _115
REMARK   50  A    between atoms: _115  and  _116
REMARK   51  A    between atoms: _118  and  _120
REMARK   52  A    between atoms: _120  and  _121
REMARK   53  A    between atoms: _120  and  _123
REMARK   54  A    between atoms: _123  and  _124
REMARK   55  A    between atoms: _127  and  _129
REMARK   56  A    between atoms: _129  and  _130
REMARK   57  A    between atoms: _132  and  _134
REMARK   58  A    between atoms: _134  and  _135
REMARK   59  A    between atoms: _137  and  _139
REMARK   60  A    between atoms: _139  and  _140
REMARK   61  A    between atoms: _139  and  _142
REMARK   62  A    between atoms: _142  and  _143
REMARK   63  A    between atoms: _146  and  _148
REMARK   64  A    between atoms: _148  and  _149
REMARK   65  A    between atoms: _151  and  _153
REMARK   66  A    between atoms: _153  and  _154
REMARK   67  A    between atoms: _156  and  _158
REMARK   68  A    between atoms: _158  and  _159
REMARK   69  A    between atoms: _158  and  _161
REMARK   70  A    between atoms: _161  and  _162
REMARK   71  A    between atoms: _168  and  _170
REMARK   72  A    between atoms: _170  and  _171
REMARK   73  A    between atoms: _170  and  _173
REMARK   74  A    between atoms: _173  and  _174
REMARK   75  A    between atoms: _177  and  _179
REMARK   76  A    between atoms: _179  and  _180
REMARK   77  A    between atoms: _179  and  _182
REMARK   78  A    between atoms: _185  and  _187
REMARK   79  A    between atoms: _187  and  _188
REMARK   80  A    between atoms: _187  and  _190
REMARK   81  A    between atoms: _190  and  _191
REMARK   82  A    between atoms: _194  and  _196
REMARK   83  A    between atoms: _196  and  _197
REMARK   84  A    between atoms: _196  and  _199
REMARK   85  A    between atoms: _199  and  _200
REMARK   86  A    between atoms: _204  and  _205
REMARK   87  A    between atoms: _210  and  _212
REMARK   88  A    between atoms: _212  and  _213
REMARK   89  A    between atoms: _212  and  _215
REMARK   90  A    between atoms: _215  and  _216
REMARK   91  A    between atoms: _219  and  _221
REMARK   92  A    between atoms: _221  and  _222
REMARK   93  A    between atoms: _221  and  _224
REMARK   94  A    between atoms: _224  and  _225
REMARK   95  A    between atoms: _230  and  _232
REMARK   96  A    between atoms: _232  and  _233
REMARK   97  A    between atoms: _232  and  _235
REMARK   98  A    between atoms: _238  and  _240
REMARK   99  A    between atoms: _240  and  _241
REMARK  100  A    between atoms: _240  and  _243
REMARK  101  A    between atoms: _243  and  _244
REMARK  102  A    between atoms: _247  and  _249
REMARK  103  A    between atoms: _249  and  _250
REMARK  104  A    between atoms: _252  and  _254
REMARK  105  A    between atoms: _254  and  _255
REMARK  106  A    between atoms: _254  and  _257
REMARK  107  A    between atoms: _257  and  _258
REMARK  108  A    between atoms: _258  and  _259
REMARK  109  A    between atoms: _259  and  _260
REMARK  110  A    between atoms: _269  and  _271
REMARK  111  A    between atoms: _271  and  _272
REMARK  112  A    between atoms: _271  and  _274
REMARK  113  A    between atoms: _274  and  _275
REMARK  114  A    between atoms: _275  and  _276
REMARK  115  A    between atoms: _276  and  _277
REMARK  116  A    between atoms: _286  and  _288
REMARK  117  A    between atoms: _288  and  _289
REMARK  118  A    between atoms: _288  and  _291
REMARK  119  A    between atoms: _291  and  _292
REMARK  120  A    between atoms: _295  and  _297
REMARK  121  A    between atoms: _297  and  _298
REMARK  122  A    between atoms: _297  and  _300
REMARK  123  A    between atoms: _300  and  _301
REMARK  124  A    between atoms: _304  and  _306
REMARK  125  A    between atoms: _306  and  _307
REMARK  126  A    between atoms: _306  and  _309
REMARK  127  A    between atoms: _309  and  _310
REMARK  128  A    between atoms: _313  and  _315
REMARK  129  A    between atoms: _315  and  _316
REMARK  130  A    between atoms: _315  and  _318
REMARK  131  A    between atoms: _318  and  _319
REMARK  132  A    between atoms: _322  and  _324
REMARK  133  A    between atoms: _324  and  _325
REMARK  134  A    between atoms: _327  and  _329
REMARK  135  A    between atoms: _329  and  _330
REMARK  136  A    between atoms: _333  and  _335
REMARK  137  A    between atoms: _335  and  _336
REMARK  138  A    between atoms: _335  and  _338
REMARK  139  A    between atoms: _338  and  _339
REMARK  140  A    between atoms: _342  and  _344
REMARK  141  A    between atoms: _344  and  _345
REMARK  142  A    between atoms: _344  and  _347
REMARK  143  A    between atoms: _347  and  _348
REMARK  144  A    between atoms: _351  and  _353
REMARK  145  A    between atoms: _353  and  _354
REMARK  146  A    between atoms: _353  and  _356
REMARK  147  A    between atoms: _356  and  _357
REMARK  148  A    between atoms: _360  and  _362
REMARK  149  A    between atoms: _362  and  _363
REMARK  150  A    between atoms: _362  and  _365
REMARK  151  A    between atoms: _368  and  _370
REMARK  152  A    between atoms: _370  and  _371
REMARK  153  A    between atoms: _370  and  _373
REMARK  154  A    between atoms: _373  and  _374
REMARK  155  A    between atoms: _377  and  _379
REMARK  156  A    between atoms: _379  and  _380
REMARK  157  A    between atoms: _379  and  _382
REMARK  158  A    between atoms: _382  and  _383
REMARK  159  A    between atoms: _383  and  _384
REMARK  160  A    between atoms: _384  and  _385
REMARK  161  A    between atoms: _385  and  _386
REMARK  162  A    between atoms: _390  and  _392
REMARK  163  A    between atoms: _392  and  _393
REMARK  164  A    between atoms: _392  and  _395
REMARK  165  A    between atoms: _395  and  _396
REMARK  166  A    between atoms: _396  and  _397
REMARK  167  A    between atoms: _399  and  _401
REMARK  168  A    between atoms: _401  and  _402
REMARK  169  A    between atoms: _401  and  _404
REMARK  170  A    between atoms: _404  and  _405
REMARK  171  A    between atoms: _408  and  _410
REMARK  172  A    between atoms: _410  and  _411
REMARK  173  A    between atoms: _413  and  _415
REMARK  174  A    between atoms: _415  and  _416
REMARK  175  A    between atoms: _418  and  _420
REMARK  176  A    between atoms: _420  and  _421
REMARK  177  A    between atoms: _420  and  _423
REMARK  178  A    between atoms: _423  and  _424
REMARK  179  A    between atoms: _427  and  _429
REMARK  180  A    between atoms: _429  and  _430
REMARK  181  A    between atoms: _432  and  _434
REMARK  182  A    between atoms: _434  and  _435
REMARK  183  A    between atoms: _437  and  _439
REMARK  184  A    between atoms: _439  and  _440
REMARK  185  A    between atoms: _439  and  _442
REMARK  186  A    between atoms: _442  and  _443
REMARK  187  A    between atoms: _449  and  _451
REMARK  188  A    between atoms: _451  and  _452
REMARK  189  A    between atoms: _451  and  _454
REMARK  190  A    between atoms: _454  and  _455
REMARK  191  A    between atoms: _458  and  _460
REMARK  192  A    between atoms: _460  and  _461
REMARK  193  A    between atoms: _460  and  _463
REMARK  194  A    between atoms: _466  and  _468
REMARK  195  A    between atoms: _468  and  _469
REMARK  196  A    between atoms: _468  and  _471
REMARK  197  A    between atoms: _471  and  _472
REMARK  198  A    between atoms: _475  and  _477
REMARK  199  A    between atoms: _477  and  _478
REMARK  200  A    between atoms: _477  and  _480
REMARK  201  A    between atoms: _480  and  _481
REMARK  202  A    between atoms: _485  and  _486
REMARK  203  A    between atoms: _491  and  _493
REMARK  204  A    between atoms: _493  and  _494
REMARK  205  A    between atoms: _493  and  _496
REMARK  206  A    between atoms: _496  and  _497
REMARK  207  A    between atoms: _500  and  _502
REMARK  208  A    between atoms: _502  and  _503
REMARK  209  A    between atoms: _502  and  _505
REMARK  210  A    between atoms: _505  and  _506
REMARK  211  A    between atoms: _511  and  _513
REMARK  212  A    between atoms: _513  and  _514
REMARK  213  A    between atoms: _513  and  _516
REMARK  214  A    between atoms: _519  and  _521
REMARK  215  A    between atoms: _521  and  _522
REMARK  216  A    between atoms: _521  and  _524
REMARK  217  A    between atoms: _524  and  _525
REMARK  218  A    between atoms: _528  and  _530
REMARK  219  A    between atoms: _530  and  _531
REMARK  220  A    between atoms: _533  and  _535
REMARK  221  A    between atoms: _535  and  _536
REMARK  222  A    between atoms: _535  and  _538
REMARK  223  A    between atoms: _538  and  _539
REMARK  224  A    between atoms: _539  and  _540
REMARK  225  A    between atoms: _540  and  _541
REMARK  226  A    between atoms: _550  and  _552
REMARK  227  A    between atoms: _552  and  _553
REMARK  228  A    between atoms: _552  and  _555
REMARK  229  A    between atoms: _555  and  _556
REMARK                            x       y       z     vdW  Elec       q    Type
REMARK                         _______ _______ _______ _____ _____    ______ ____
ROOT
ATOM      1  CA  LEU A   1      12.088  10.990  17.447  0.00  0.00    +0.133 C 
ENDROOT
BRANCH   1   2
ATOM      2  N   LEU A   1      10.714  11.219  17.865  0.00  0.00    -0.239 NA
ATOM      3  H   LEU A   1      10.235  12.090  17.559  0.00  0.00    +0.142 HD
ENDBRANCH   1   2
BRANCH   1   4
ATOM      4  C   LEU A   1      13.101  11.649  18.375  0.00  0.00    +0.224 C 
ATOM      5  O   LEU A   1      13.007  12.843  18.652  0.00  0.00    -0.287 OA
ENDBRANCH   1   4
BRANCH   1   6
ATOM      6  CB  LEU A   1      12.290  11.520  16.031  0.00  0.00    +0.025 C 
BRANCH   6   7
ATOM      7  CG  LEU A   1      11.471  10.831  14.942  0.00  0.00    +0.002 C 
ATOM      8  CD2 LEU A   1      11.986   9.410  14.729  0.00  0.00    +0.000 C 
ATOM      9  CD1 LEU A   1      11.548  11.643  13.655  0.00  0.00    +0.000 C 
ENDBRANCH   6   7
ENDBRANCH   1   6
TORSDOF 4
REMARK  Name = ../refined-set-2016/1k6p/1k6p_pocket.pdb
REMARK  229 active torsions:
REMARK  status: ('A' for Active; 'I' for Inactive)
REMARK    1  A    between atoms: _1  and  _3
REMARK    2  A    between atoms: _3  and  _4
REMARK    3  A    between atoms: _3  and  _6
REMARK    4  A    between atoms: _6  and  _7
REMARK    5  A    between atoms: _7  and  _8
REMARK    6  A    between atoms: _8  and  _9
REMARK    7  A    between atoms: _18  and  _20
REMARK    8  A    between atoms: _20  and  _21
REMARK    9  A    between atoms: _20  and  _23
REMARK   10  A    between atoms: _23  and  _24
REMARK   11  A    between atoms: _27  and  _29
REMARK   12  A    between atoms: _29  and  _30
REMARK   13  A    between atoms: _29  and  _32
REMARK   14  A    between atoms: _32  and  _33
REMARK   15  A    between atoms: _36  and  _38
REMARK   16  A    between atoms: _38  and  _39
REMARK   17  A    between atoms: _38  and  _41
REMARK   18  A    between atoms: _41  and  _42
REMARK   19  A    between atoms: _45  and  _47
REMARK   20  A    between atoms: _47  and  _48
REMARK   21  A    between atoms: _47  and  _50
REMARK   22  A    between atoms: _50  and  _51
REMARK   23  A    between atoms: _54  and  _56
REMARK   24  A    between atoms: _56  and  _57
REMARK   25  A    between atoms: _56  and  _59
REMARK   26  A    between atoms: _59  and  _60
REMARK   27  A    between atoms: _63  and  _65
REMARK   28  A    between atoms: _65  and  _66
REMARK   29  A    between atoms: _68  and  _70
REMARK   30  A    between atoms: _70  and  _71
REMARK   31  A    between atoms: _74  and  _76
REMARK   32  A    between atoms: _76  and  _77
REMARK   33  A    between atoms: _76  and  _79
REMARK   34  A    between atoms: _79  and  _80
REMARK   35  A    between atoms: _83  and  _85
REMARK   36  A    between atoms: _85  and  _86
REMARK   37  A    between atoms: _85  and  _88
REMARK   38  A    between atoms: _88  and  _89
REMARK   39  A    between atoms: _92  and  _94
REMARK   40  A    between atoms: _94  and  _95
REMARK   41  A    between atoms: _94  and  _97
REMARK   42  A    between atoms: _97  and  _98
REMARK   43  A    between atoms: _101  and  _103
REMARK   44  A    between atoms: _103  and  _104
REMARK   45  A    between atoms: _103  and  _106
REMARK   46  A    between atoms: _109  and  _111
REMARK   47  A    between atoms: _111  and  _112
REMARK   48  A    between atoms: _111  and  _114
REMARK   49  A    between atoms: _114  and  _115
REMARK   50  A    between atoms: _115  and  _116
REMARK   51  A    between atoms: _118  and  _120
REMARK   52  A    between atoms: _120  and  _121
REMARK   53  A    between atoms: _120  and  _123
REMARK   54  A    between atoms: _123  and  _124
REMARK   55  A    between atoms: _127  and  _129
REMARK   56  A    between atoms: _129  and  _130
REMARK   57  A    between atoms: _132  and  _134
REMARK   58  A    between atoms: _134  and  _135
REMARK   59  A    between atoms: _137  and  _139
REMARK   60  A    between atoms: _139  and  _140
REMARK   61  A    between atoms: _139  and  _142
REMARK   62  A    between atoms: _142  and  _143
REMARK   63  A    between atoms: _146  and  _148
REMARK   64  A    between atoms: _148  and  _149
REMARK   65  A    between atoms: _151  and  _153
REMARK   66  A    between atoms: _153  and  _154
REMARK   67  A    between atoms: _156  and  _158
REMARK   68  A    between atoms: _158  and  _159
REMARK   69  A    between atoms: _158  and  _161
REMARK   70  A    between atoms: _161  and  _162
REMARK   71  A    between atoms: _168  and  _170
REMARK   72  A    between atoms: _170  and  _171
REMARK   73  A    between atoms: _170  and  _173
REMARK   74  A    between atoms: _173  and  _174
REMARK   75  A    between atoms: _177  and  _179
REMARK   76  A    between atoms: _179  and  _180
REMARK   77  A    between atoms: _179  and  _182
REMARK   78  A    between atoms: _185  and  _187
REMARK   79  A    between atoms: _187  and  _188
REMARK   80  A    between atoms: _187  and  _190
REMARK   81  A    between atoms: _190  and  _191
REMARK   82  A    between atoms: _194  and  _196
REMARK   83  A    between atoms: _196  and  _197
REMARK   84  A    between atoms: _196  and  _199
REMARK   85  A    between atoms: _199  and  _200
REMARK   86  A    between atoms: _204  and  _205
REMARK   87  A    between atoms: _210  and  _212
REMARK   88  A    between atoms: _212  and  _213
REMARK   89  A    between atoms: _212  and  _215
REMARK   90  A    between atoms: _215  and  _216
REMARK   91  A    between atoms: _219  and  _221
REMARK   92  A    between atoms: _221  and  _222
REMARK   93  A    between atoms: _221  and  _224
REMARK   94  A    between atoms: _224  and  _225
REMARK   95  A    between atoms: _230  and  _232
REMARK   96  A    between atoms: _232  and  _233
REMARK   97  A    between atoms: _232  and  _235
REMARK   98  A    between atoms: _238  and  _240
REMARK   99  A    between atoms: _240  and  _241
REMARK  100  A    between atoms: _240  and  _243
REMARK  101  A    between atoms: _243  and  _244
REMARK  102  A    between atoms: _247  and  _249
REMARK  103  A    between atoms: _249  and  _250
REMARK  104  A    between atoms: _252  and  _254
REMARK  105  A    between atoms: _254  and  _255
REMARK  106  A    between atoms: _254  and  _257
REMARK  107  A    between atoms: _257  and  _258
REMARK  108  A    between atoms: _258  and  _259
REMARK  109  A    between atoms: _259  and  _260
REMARK  110  A    between atoms: _269  and  _271
REMARK  111  A    between atoms: _271  and  _272
REMARK  112  A    between atoms: _271  and  _274
REMARK  113  A    between atoms: _274  and  _275
REMARK  114  A    between atoms: _275  and  _276
REMARK  115  A    between atoms: _276  and  _277
REMARK  116  A    between atoms: _286  and  _288
REMARK  117  A    between atoms: _288  and  _289
REMARK  118  A    between atoms: _288  and  _291
REMARK  119  A    between atoms: _291  and  _292
REMARK  120  A    between atoms: _295  and  _297
REMARK  121  A    between atoms: _297  and  _298
REMARK  122  A    between atoms: _297  and  _300
REMARK  123  A    between atoms: _300  and  _301
REMARK  124  A    between atoms: _304  and  _306
REMARK  125  A    between atoms: _306  and  _307
REMARK  126  A    between atoms: _306  and  _309
REMARK  127  A    between atoms: _309  and  _310
REMARK  128  A    between atoms: _313  and  _315
REMARK  129  A    between atoms: _315  and  _316
REMARK  130  A    between atoms: _315  and  _318
REMARK  131  A    between atoms: _318  and  _319
REMARK  132  A    between atoms: _322  and  _324
REMARK  133  A    between atoms: _324  and  _325
REMARK  134  A    between atoms: _327  and  _329
REMARK  135  A    between atoms: _329  and  _330
REMARK  136  A    between atoms: _333  and  _335
REMARK  137  A    between atoms: _335  and  _336
REMARK  138  A    between atoms: _335  and  _338
REMARK  139  A    between atoms: _338  and  _339
REMARK  140  A    between atoms: _342  and  _344
REMARK  141  A    between atoms: _344  and  _345
REMARK  142  A    between atoms: _344  and  _347
REMARK  143  A    between atoms: _347  and  _348
REMARK  144  A    between atoms: _351  and  _353
REMARK  145  A    between atoms: _353  and  _354
REMARK  146  A    between atoms: _353  and  _356
REMARK  147  A    between atoms: _356  and  _357
REMARK  148  A    between atoms: _360  and  _362
REMARK  149  A    between atoms: _362  and  _363
REMARK  150  A    between atoms: _362  and  _365
REMARK  151  A    between atoms: _368  and  _370
REMARK  152  A    between atoms: _370  and  _371
REMARK  153  A    between atoms: _370  and  _373
REMARK  154  A    between atoms: _373  and  _374
REMARK  155  A    between atoms: _377  and  _379
REMARK  156  A    between atoms: _379  and  _380
REMARK  157  A    between atoms: _379  and  _382
REMARK  158  A    between atoms: _382  and  _383
REMARK  159  A    between atoms: _383  and  _384
REMARK  160  A    between atoms: _384  and  _385
REMARK  161  A    between atoms: _385  and  _386
REMARK  162  A    between atoms: _390  and  _392
REMARK  163  A    between atoms: _392  and  _393
REMARK  164  A    between atoms: _392  and  _395
REMARK  165  A    between atoms: _395  and  _396
REMARK  166  A    between atoms: _396  and  _397
REMARK  167  A    between atoms: _399  and  _401
REMARK  168  A    between atoms: _401  and  _402
REMARK  169  A    between atoms: _401  and  _404
REMARK  170  A    between atoms: _404  and  _405
REMARK  171  A    between atoms: _408  and  _410
REMARK  172  A    between atoms: _410  and  _411
REMARK  173  A    between atoms: _413  and  _415
REMARK  174  A    between atoms: _415  and  _416
REMARK  175  A    between atoms: _418  and  _420
REMARK  176  A    between atoms: _420  and  _421
REMARK  177  A    between atoms: _420  and  _423
REMARK  178  A    between atoms: _423  and  _424
REMARK  179  A    between atoms: _427  and  _429
REMARK  180  A    between atoms: _429  and  _430
REMARK  181  A    between atoms: _432  and  _434
REMARK  182  A    between atoms: _434  and  _435
REMARK  183  A    between atoms: _437  and  _439
REMARK  184  A    between atoms: _439  and  _440
REMARK  185  A    between atoms: _439  and  _442
REMARK  186  A    between atoms: _442  and  _443
REMARK  187  A    between atoms: _449  and  _451
REMARK  188  A    between atoms: _451  and  _452
REMARK  189  A    between atoms: _451  and  _454
REMARK  190  A    between atoms: _454  and  _455
REMARK  191  A    between atoms: _458  and  _460
REMARK  192  A    between atoms: _460  and  _461
REMARK  193  A    between atoms: _460  and  _463
REMARK  194  A    between atoms: _466  and  _468
REMARK  195  A    between atoms: _468  and  _469
REMARK  196  A    between atoms: _468  and  _471
REMARK  197  A    between atoms: _471  and  _472
REMARK  198  A    between atoms: _475  and  _477
REMARK  199  A    between atoms: _477  and  _478
REMARK  200  A    between atoms: _477  and  _480
REMARK  201  A    between atoms: _480  and  _481
REMARK  202  A    between atoms: _485  and  _486
REMARK  203  A    between atoms: _491  and  _493
REMARK  204  A    between atoms: _493  and  _494
REMARK  205  A    between atoms: _493  and  _496
REMARK  206  A    between atoms: _496  and  _497
REMARK  207  A    between atoms: _500  and  _502
REMARK  208  A    between atoms: _502  and  _503
REMARK  209  A    between atoms: _502  and  _505
REMARK  210  A    between atoms: _505  and  _506
REMARK  211  A    between atoms: _511  and  _513
REMARK  212  A    between atoms: _513  and  _514
REMARK  213  A    between atoms: _513  and  _516
REMARK  214  A    between atoms: _519  and  _521
REMARK  215  A    between atoms: _521  and  _522
REMARK  216  A    between atoms: _521  and  _524
REMARK  217  A    between atoms: _524  and  _525
REMARK  218  A    between atoms: _528  and  _530
REMARK  219  A    between atoms: _530  and  _531
REMARK  220  A    between atoms: _533  and  _535
REMARK  221  A    between atoms: _535  and  _536
REMARK  222  A    between atoms: _535  and  _538
REMARK  223  A    between atoms: _538  and  _539
REMARK  224  A    between atoms: _539  and  _540
REMARK  225  A    between atoms: _540  and  _541
REMARK  226  A    between atoms: _550  and  _552
REMARK  227  A    between atoms: _552  and  _553
REMARK  228  A    between atoms: _552  and  _555
REMARK  229  A    between atoms: _555  and  _556
REMARK                            x       y       z     vdW  Elec       q    Type
REMARK                         _______ _______ _______ _____ _____    ______ ____
ROOT
ATOM      1  C   GLY A   5       5.573  -1.971  20.385  0.00  0.00    +0.243 C 
ATOM      2  N   ALA A   6       6.851  -1.632  20.463  0.00  0.00    -0.297 N 
ATOM      3  H   ALA A   6       7.111  -0.696  20.834  0.00  0.00    +0.150 HD
ATOM      4  O   GLY A   5       5.203  -3.065  19.949  0.00  0.00    -0.273 OA
ENDROOT
BRANCH   2   5
ATOM      5  CA  ALA A   6       7.895  -2.548  20.039  0.00  0.00    +0.149 C 
ATOM      6  CB  ALA A   6       8.980  -1.777  19.283  0.00  0.00    +0.031 C 
BRANCH   5   7
ATOM      7  C   ALA A   6       8.487  -3.251  21.260  0.00  0.00    +0.241 C 
ATOM      8  O   ALA A   6       8.903  -2.590  22.215  0.00  0.00    -0.273 OA
ATOM      9  N   ASP A   7       8.506  -4.584  21.238  0.00  0.00    -0.297 N 
ATOM     10  H   ASP A   7       8.116  -5.090  20.417  0.00  0.00    +0.150 HD
BRANCH   9  11
ATOM     11  CA  ASP A   7       9.068  -5.342  22.352  0.00  0.00    +0.160 C 
BRANCH  11  12
ATOM     12  C   ASP A   7      10.587  -5.221  22.347  0.00  0.00    +0.241 C 
ATOM     13  O   ASP A   7      11.215  -5.086  23.400  0.00  0.00    -0.273 OA
ATOM     14  N   ASP A   8      11.162  -5.270  21.148  0.00  0.00    -0.297 N 
ATOM     15  H   ASP A   8      10.558  -5.365  20.306  0.00  0.00    +0.150 HD
BRANCH  14  16
ATOM     16  CA  ASP A   8      12.605  -5.195  20.971  0.00  0.00    +0.160 C 
BRANCH  16  17
ATOM     17  C   ASP A   8      13.046  -3.885  20.334  0.00  0.00    +0.241 C 
ATOM     18  N   THR A   9      14.357  -3.737  20.189  0.00  0.00    -0.295 N 
ATOM     19  H   THR A   9      14.984  -4.498  20.521  0.00  0.00    +0.150 HD
ATOM     20  O   ASP A   8      12.227  -3.041  19.983  0.00  0.00    -0.273 OA
BRANCH  18  21
ATOM     21  CA  THR A   9      14.955  -2.556  19.585  0.00  0.00    +0.176 C 
BRANCH  21  22
ATOM     22  C   THR A   9      15.503  -2.980  18.220  0.00  0.00    +0.243 C 
ATOM     23  O   THR A   9      16.271  -3.936  18.120  0.00  0.00    -0.273 OA
ATOM     24  N   VAL A  10      15.095  -2.275  17.171  0.00  0.00    -0.298 N 
ATOM     25  H   VAL A  10      14.457  -1.467  17.317  0.00  0.00    +0.150 HD
BRANCH  24  26
ATOM     26  CA  VAL A  10      15.523  -2.611  15.821  0.00  0.00    +0.137 C 
BRANCH  26  27
ATOM     27  CB  VAL A  10      14.323  -3.077  14.970  0.00  0.00    +0.026 C 
ATOM     28  CG2 VAL A  10      13.520  -4.107  15.738  0.00  0.00    +0.002 C 
ATOM     29  CG1 VAL A  10      14.807  -3.659  13.654  0.00  0.00    +0.002 C 
ENDBRANCH  26  27
BRANCH  26  30
ATOM     30  C   VAL A  10      16.175  -1.427  15.142  0.00  0.00    +0.227 C 
ATOM     31  O   VAL A  10      15.565  -0.368  14.992  0.00  0.00    -0.286 OA
ENDBRANCH  26  30
ENDBRANCH  24  26
ENDBRANCH  21  22
BRANCH  21  32
ATOM     32  CB  THR A   9      16.087  -2.008  20.494  0.00  0.00    +0.137 C 
ATOM     33  CG2 THR A   9      16.904  -0.920  19.780  0.00  0.00    +0.034 C 
BRANCH  32  34
ATOM     34  OG1 THR A   9      15.503  -1.476  21.691  0.00  0.00    -0.382 OA
ATOM     35  HG1 THR A   9      15.011  -2.193  22.163  0.00  0.00    +0.210 HD
ENDBRANCH  32  34
ENDBRANCH  21  32
ENDBRANCH  18  21
ENDBRANCH  16  17
BRANCH  16  36
ATOM     36  CB  ASP A   8      13.074  -6.358  20.099  0.00  0.00    +0.143 C 
BRANCH  36  37
ATOM     37  CG  ASP A   8      12.459  -7.679  20.518  0.00  0.00    +0.367 C 
ATOM     38  OD2 ASP A   8      12.719  -8.133  21.653  0.00  0.00    -0.246 OA
ATOM     39  OD1 ASP A   8      11.704  -8.259  19.710  0.00  0.00    -0.246 OA
ENDBRANCH  36  37
ENDBRANCH  16  36
ENDBRANCH  14  16
ENDBRANCH  11  12
BRANCH  11  40
ATOM     40  CB  ASP A   7       8.719  -6.829  22.258  0.00  0.00    +0.143 C 
BRANCH  40  41
ATOM     41  CG  ASP A   7       7.237  -7.098  22.367  0.00  0.00    +0.367 C 
ATOM     42  OD2 ASP A   7       6.510  -6.281  22.968  0.00  0.00    -0.246 OA
ATOM     43  OD1 ASP A   7       6.803  -8.152  21.864  0.00  0.00    -0.246 OA
ENDBRANCH  40  41
ENDBRANCH  11  40
ENDBRANCH   9  11
ENDBRANCH   5   7
ENDBRANCH   2   5
BRANCH   1  44
ATOM     44  CA  GLY A   5       4.572  -0.930  20.862  0.00  0.00    +0.176 C 
BRANCH  44  47
ATOM     45  C   THR A   4       5.420   0.366  22.729  0.00  0.00    +0.243 C 
ATOM     46  O   THR A   4       5.159  -0.534  23.526  0.00  0.00    -0.273 OA
ATOM     47  N   GLY A   5       5.172   0.274  21.423  0.00  0.00    -0.295 N 
ATOM     48  H   GLY A   5       5.409   1.070  20.797  0.00  0.00    +0.150 HD
BRANCH  45  49
ATOM     49  CA  THR A   4       6.042   1.666  23.222  0.00  0.00    +0.176 C 
BRANCH  49  51
ATOM     50  C   ASP A   3       7.701   2.126  21.507  0.00  0.00    +0.241 C 
ATOM     51  N   THR A   4       6.590   2.492  22.142  0.00  0.00    -0.295 N 
ATOM     52  H   THR A   4       6.106   3.372  21.870  0.00  0.00    +0.150 HD
ATOM     53  O   ASP A   3       8.310   1.088  21.774  0.00  0.00    -0.273 OA
BRANCH  50  54
ATOM     54  CA  ASP A   3       8.200   3.032  20.391  0.00  0.00    +0.160 C 
BRANCH  54  56
ATOM     55  C   LEU A   2       9.278   5.182  20.765  0.00  0.00    +0.241 C 
ATOM     56  N   ASP A   3       9.349   3.858  20.735  0.00  0.00    -0.297 N 
ATOM     57  H   ASP A   3      10.252   3.396  20.964  0.00  0.00    +0.150 HD
ATOM     58  O   LEU A   2       8.232   5.805  20.592  0.00  0.00    -0.273 OA
BRANCH  55  59
ATOM     59  CA  LEU A   2      10.593   5.902  21.030  0.00  0.00    +0.149 C 
BRANCH  59  61
ATOM     60  C   LEU A   1      11.471   5.761  18.769  0.00  0.00    +0.238 C 
ATOM     61  N   LEU A   2      10.914   6.494  19.733  0.00  0.00    -0.297 N 
ATOM     62  H   LEU A   2      10.706   7.498  19.560  0.00  0.00    +0.150 HD
ATOM     63  O   LEU A   1      11.809   4.589  18.938  0.00  0.00    -0.274 OA
BRANCH  60  64
ATOM     64  CA  LEU A   1      11.715   6.449  17.425  0.00  0.00    +0.145 C 
BRANCH  64  65
ATOM     65  N   LEU A   1      13.086   6.300  16.977  0.00  0.00    -0.238 NA
ATOM     66  H   LEU A   1      13.317   5.504  16.349  0.00  0.00    +0.142 HD
ENDBRANCH  64  65
BRANCH  64  67
ATOM     67  CB  LEU A   1      10.814   5.855  16.344  0.00  0.00    +0.026 C 
BRANCH  67  68
ATOM     68  CG  LEU A   1       9.296   5.893  16.388  0.00  0.00    +0.002 C 
ATOM     69  CD2 LEU A   1       8.765   7.303  16.136  0.00  0.00    +0.000 C 
ATOM     70  CD1 LEU A   1       8.798   4.948  15.312  0.00  0.00    +0.000 C 
ENDBRANCH  67  68
ENDBRANCH  64  67
ENDBRANCH  60  64
ENDBRANCH  59  61
BRANCH  59  71
ATOM     71  CB  LEU A   2      10.427   6.981  22.095  0.00  0.00    +0.029 C 
BRANCH  71  72
ATOM     72  CG  LEU A   2      11.717   7.779  22.335  0.00  0.00    +0.002 C 
ATOM     73  CD2 LEU A   2      11.478   8.795  23.433  0.00  0.00    +0.000 C 
ATOM     74  CD1 LEU A   2      12.872   6.833  22.699  0.00  0.00    +0.000 C 
ENDBRANCH  71  72
ENDBRANCH  59  71
ENDBRANCH  55  59
ENDBRANCH  54  56
BRANCH  54  75
ATOM     75  CB  ASP A   3       8.603   2.174  19.194  0.00  0.00    +0.143 C 
BRANCH  75  76
ATOM     76  CG  ASP A   3       7.428   1.578  18.480  0.00  0.00    +0.367 C 
ATOM     77  OD2 ASP A   3       6.349   1.461  19.100  0.00  0.00    -0.246 OA
ATOM     78  OD1 ASP A   3       7.603   1.219  17.299  0.00  0.00    -0.246 OA
ENDBRANCH  75  76
ENDBRANCH  54  75
ENDBRANCH  50  54
ENDBRANCH  49  51
BRANCH  49  79
ATOM     79  CB  THR A   4       4.960   2.400  24.021  0.00  0.00    +0.137 C 
ATOM     80  CG2 THR A   4       5.572   3.503  24.858  0.00  0.00    +0.034 C 
BRANCH  79  81
ATOM     81  OG1 THR A   4       3.988   2.941  23.119  0.00  0.00    -0.382 OA
ATOM     82  HG1 THR A   4       3.575   2.206  22.600  0.00  0.00    +0.210 HD
ENDBRANCH  79  81
ENDBRANCH  49  79
ENDBRANCH  45  49
ENDBRANCH  44  47
ENDBRANCH   1  44
TORSDOF 35
REMARK  Name = ../refined-set-2016/1k6p/1k6p_pocket.pdb
REMARK  229 active torsions:
REMARK  status: ('A' for Active; 'I' for Inactive)
REMARK    1  A    between atoms: _1  and  _3
REMARK    2  A    between atoms: _3  and  _4
REMARK    3  A    between atoms: _3  and  _6
REMARK    4  A    between atoms: _6  and  _7
REMARK    5  A    between atoms: _7  and  _8
REMARK    6  A    between atoms: _8  and  _9
REMARK    7  A    between atoms: _18  and  _20
REMARK    8  A    between atoms: _20  and  _21
REMARK    9  A    between atoms: _20  and  _23
REMARK   10  A    between atoms: _23  and  _24
REMARK   11  A    between atoms: _27  and  _29
REMARK   12  A    between atoms: _29  and  _30
REMARK   13  A    between atoms: _29  and  _32
REMARK   14  A    between atoms: _32  and  _33
REMARK   15  A    between atoms: _36  and  _38
REMARK   16  A    between atoms: _38  and  _39
REMARK   17  A    between atoms: _38  and  _41
REMARK   18  A    between atoms: _41  and  _42
REMARK   19  A    between atoms: _45  and  _47
REMARK   20  A    between atoms: _47  and  _48
REMARK   21  A    between atoms: _47  and  _50
REMARK   22  A    between atoms: _50  and  _51
REMARK   23  A    between atoms: _54  and  _56
REMARK   24  A    between atoms: _56  and  _57
REMARK   25  A    between atoms: _56  and  _59
REMARK   26  A    between atoms: _59  and  _60
REMARK   27  A    between atoms: _63  and  _65
REMARK   28  A    between atoms: _65  and  _66
REMARK   29  A    between atoms: _68  and  _70
REMARK   30  A    between atoms: _70  and  _71
REMARK   31  A    between atoms: _74  and  _76
REMARK   32  A    between atoms: _76  and  _77
REMARK   33  A    between atoms: _76  and  _79
REMARK   34  A    between atoms: _79  and  _80
REMARK   35  A    between atoms: _83  and  _85
REMARK   36  A    between atoms: _85  and  _86
REMARK   37  A    between atoms: _85  and  _88
REMARK   38  A    between atoms: _88  and  _89
REMARK   39  A    between atoms: _92  and  _94
REMARK   40  A    between atoms: _94  and  _95
REMARK   41  A    between atoms: _94  and  _97
REMARK   42  A    between atoms: _97  and  _98
REMARK   43  A    between atoms: _101  and  _103
REMARK   44  A    between atoms: _103  and  _104
REMARK   45  A    between atoms: _103  and  _106
REMARK   46  A    between atoms: _109  and  _111
REMARK   47  A    between atoms: _111  and  _112
REMARK   48  A    between atoms: _111  and  _114
REMARK   49  A    between atoms: _114  and  _115
REMARK   50  A    between atoms: _115  and  _116
REMARK   51  A    between atoms: _118  and  _120
REMARK   52  A    between atoms: _120  and  _121
REMARK   53  A    between atoms: _120  and  _123
REMARK   54  A    between atoms: _123  and  _124
REMARK   55  A    between atoms: _127  and  _129
REMARK   56  A    between atoms: _129  and  _130
REMARK   57  A    between atoms: _132  and  _134
REMARK   58  A    between atoms: _134  and  _135
REMARK   59  A    between atoms: _137  and  _139
REMARK   60  A    between atoms: _139  and  _140
REMARK   61  A    between atoms: _139  and  _142
REMARK   62  A    between atoms: _142  and  _143
REMARK   63  A    between atoms: _146  and  _148
REMARK   64  A    between atoms: _148  and  _149
REMARK   65  A    between atoms: _151  and  _153
REMARK   66  A    between atoms: _153  and  _154
REMARK   67  A    between atoms: _156  and  _158
REMARK   68  A    between atoms: _158  and  _159
REMARK   69  A    between atoms: _158  and  _161
REMARK   70  A    between atoms: _161  and  _162
REMARK   71  A    between atoms: _168  and  _170
REMARK   72  A    between atoms: _170  and  _171
REMARK   73  A    between atoms: _170  and  _173
REMARK   74  A    between atoms: _173  and  _174
REMARK   75  A    between atoms: _177  and  _179
REMARK   76  A    between atoms: _179  and  _180
REMARK   77  A    between atoms: _179  and  _182
REMARK   78  A    between atoms: _185  and  _187
REMARK   79  A    between atoms: _187  and  _188
REMARK   80  A    between atoms: _187  and  _190
REMARK   81  A    between atoms: _190  and  _191
REMARK   82  A    between atoms: _194  and  _196
REMARK   83  A    between atoms: _196  and  _197
REMARK   84  A    between atoms: _196  and  _199
REMARK   85  A    between atoms: _199  and  _200
REMARK   86  A    between atoms: _204  and  _205
REMARK   87  A    between atoms: _210  and  _212
REMARK   88  A    between atoms: _212  and  _213
REMARK   89  A    between atoms: _212  and  _215
REMARK   90  A    between atoms: _215  and  _216
REMARK   91  A    between atoms: _219  and  _221
REMARK   92  A    between atoms: _221  and  _222
REMARK   93  A    between atoms: _221  and  _224
REMARK   94  A    between atoms: _224  and  _225
REMARK   95  A    between atoms: _230  and  _232
REMARK   96  A    between atoms: _232  and  _233
REMARK   97  A    between atoms: _232  and  _235
REMARK   98  A    between atoms: _238  and  _240
REMARK   99  A    between atoms: _240  and  _241
REMARK  100  A    between atoms: _240  and  _243
REMARK  101  A    between atoms: _243  and  _244
REMARK  102  A    between atoms: _247  and  _249
REMARK  103  A    between atoms: _249  and  _250
REMARK  104  A    between atoms: _252  and  _254
REMARK  105  A    between atoms: _254  and  _255
REMARK  106  A    between atoms: _254  and  _257
REMARK  107  A    between atoms: _257  and  _258
REMARK  108  A    between atoms: _258  and  _259
REMARK  109  A    between atoms: _259  and  _260
REMARK  110  A    between atoms: _269  and  _271
REMARK  111  A    between atoms: _271  and  _272
REMARK  112  A    between atoms: _271  and  _274
REMARK  113  A    between atoms: _274  and  _275
REMARK  114  A    between atoms: _275  and  _276
REMARK  115  A    between atoms: _276  and  _277
REMARK  116  A    between atoms: _286  and  _288
REMARK  117  A    between atoms: _288  and  _289
REMARK  118  A    between atoms: _288  and  _291
REMARK  119  A    between atoms: _291  and  _292
REMARK  120  A    between atoms: _295  and  _297
REMARK  121  A    between atoms: _297  and  _298
REMARK  122  A    between atoms: _297  and  _300
REMARK  123  A    between atoms: _300  and  _301
REMARK  124  A    between atoms: _304  and  _306
REMARK  125  A    between atoms: _306  and  _307
REMARK  126  A    between atoms: _306  and  _309
REMARK  127  A    between atoms: _309  and  _310
REMARK  128  A    between atoms: _313  and  _315
REMARK  129  A    between atoms: _315  and  _316
REMARK  130  A    between atoms: _315  and  _318
REMARK  131  A    between atoms: _318  and  _319
REMARK  132  A    between atoms: _322  and  _324
REMARK  133  A    between atoms: _324  and  _325
REMARK  134  A    between atoms: _327  and  _329
REMARK  135  A    between atoms: _329  and  _330
REMARK  136  A    between atoms: _333  and  _335
REMARK  137  A    between atoms: _335  and  _336
REMARK  138  A    between atoms: _335  and  _338
REMARK  139  A    between atoms: _338  and  _339
REMARK  140  A    between atoms: _342  and  _344
REMARK  141  A    between atoms: _344  and  _345
REMARK  142  A    between atoms: _344  and  _347
REMARK  143  A    between atoms: _347  and  _348
REMARK  144  A    between atoms: _351  and  _353
REMARK  145  A    between atoms: _353  and  _354
REMARK  146  A    between atoms: _353  and  _356
REMARK  147  A    between atoms: _356  and  _357
REMARK  148  A    between atoms: _360  and  _362
REMARK  149  A    between atoms: _362  and  _363
REMARK  150  A    between atoms: _362  and  _365
REMARK  151  A    between atoms: _368  and  _370
REMARK  152  A    between atoms: _370  and  _371
REMARK  153  A    between atoms: _370  and  _373
REMARK  154  A    between atoms: _373  and  _374
REMARK  155  A    between atoms: _377  and  _379
REMARK  156  A    between atoms: _379  and  _380
REMARK  157  A    between atoms: _379  and  _382
REMARK  158  A    between atoms: _382  and  _383
REMARK  159  A    between atoms: _383  and  _384
REMARK  160  A    between atoms: _384  and  _385
REMARK  161  A    between atoms: _385  and  _386
REMARK  162  A    between atoms: _390  and  _392
REMARK  163  A    between atoms: _392  and  _393
REMARK  164  A    between atoms: _392  and  _395
REMARK  165  A    between atoms: _395  and  _396
REMARK  166  A    between atoms: _396  and  _397
REMARK  167  A    between atoms: _399  and  _401
REMARK  168  A    between atoms: _401  and  _402
REMARK  169  A    between atoms: _401  and  _404
REMARK  170  A    between atoms: _404  and  _405
REMARK  171  A    between atoms: _408  and  _410
REMARK  172  A    between atoms: _410  and  _411
REMARK  173  A    between atoms: _413  and  _415
REMARK  174  A    between atoms: _415  and  _416
REMARK  175  A    between atoms: _418  and  _420
REMARK  176  A    between atoms: _420  and  _421
REMARK  177  A    between atoms: _420  and  _423
REMARK  178  A    between atoms: _423  and  _424
REMARK  179  A    between atoms: _427  and  _429
REMARK  180  A    between atoms: _429  and  _430
REMARK  181  A    between atoms: _432  and  _434
REMARK  182  A    between atoms: _434  and  _435
REMARK  183  A    between atoms: _437  and  _439
REMARK  184  A    between atoms: _439  and  _440
REMARK  185  A    between atoms: _439  and  _442
REMARK  186  A    between atoms: _442  and  _443
REMARK  187  A    between atoms: _449  and  _451
REMARK  188  A    between atoms: _451  and  _452
REMARK  189  A    between atoms: _451  and  _454
REMARK  190  A    between atoms: _454  and  _455
REMARK  191  A    between atoms: _458  and  _460
REMARK  192  A    between atoms: _460  and  _461
REMARK  193  A    between atoms: _460  and  _463
REMARK  194  A    between atoms: _466  and  _468
REMARK  195  A    between atoms: _468  and  _469
REMARK  196  A    between atoms: _468  and  _471
REMARK  197  A    between atoms: _471  and  _472
REMARK  198  A    between atoms: _475  and  _477
REMARK  199  A    between atoms: _477  and  _478
REMARK  200  A    between atoms: _477  and  _480
REMARK  201  A    between atoms: _480  and  _481
REMARK  202  A    between atoms: _485  and  _486
REMARK  203  A    between atoms: _491  and  _493
REMARK  204  A    between atoms: _493  and  _494
REMARK  205  A    between atoms: _493  and  _496
REMARK  206  A    between atoms: _496  and  _497
REMARK  207  A    between atoms: _500  and  _502
REMARK  208  A    between atoms: _502  and  _503
REMARK  209  A    between atoms: _502  and  _505
REMARK  210  A    between atoms: _505  and  _506
REMARK  211  A    between atoms: _511  and  _513
REMARK  212  A    between atoms: _513  and  _514
REMARK  213  A    between atoms: _513  and  _516
REMARK  214  A    between atoms: _519  and  _521
REMARK  215  A    between atoms: _521  and  _522
REMARK  216  A    between atoms: _521  and  _524
REMARK  217  A    between atoms: _524  and  _525
REMARK  218  A    between atoms: _528  and  _530
REMARK  219  A    between atoms: _530  and  _531
REMARK  220  A    between atoms: _533  and  _535
REMARK  221  A    between atoms: _535  and  _536
REMARK  222  A    between atoms: _535  and  _538
REMARK  223  A    between atoms: _538  and  _539
REMARK  224  A    between atoms: _539  and  _540
REMARK  225  A    between atoms: _540  and  _541
REMARK  226  A    between atoms: _550  and  _552
REMARK  227  A    between atoms: _552  and  _553
REMARK  228  A    between atoms: _552  and  _555
REMARK  229  A    between atoms: _555  and  _556
REMARK                            x       y       z     vdW  Elec       q    Type
REMARK                         _______ _______ _______ _____ _____    ______ ____
ROOT
ATOM      1  CA  ILE A   5       2.801  -5.050  10.589  0.00  0.00    +0.149 C 
ENDROOT
BRANCH   1   3
ATOM      2  C   GLY A   4       4.645  -6.287  11.566  0.00  0.00    +0.243 C 
ATOM      3  N   ILE A   5       4.022  -5.130  11.385  0.00  0.00    -0.297 N 
ATOM      4  H   ILE A   5       4.409  -4.267  11.817  0.00  0.00    +0.150 HD
ATOM      5  O   GLY A   4       4.236  -7.338  11.076  0.00  0.00    -0.273 OA
BRANCH   2   6
ATOM      6  CA  GLY A   4       5.888  -6.287  12.423  0.00  0.00    +0.176 C 
BRANCH   6   9
ATOM      7  C   GLY A   3       6.778  -8.346  13.318  0.00  0.00    +0.243 C 
ATOM      8  O   GLY A   3       6.697  -7.938  14.479  0.00  0.00    -0.273 OA
ATOM      9  N   GLY A   4       6.444  -7.615  12.265  0.00  0.00    -0.295 N 
ATOM     10  H   GLY A   4       6.583  -8.001  11.309  0.00  0.00    +0.150 HD
BRANCH   7  11
ATOM     11  CA  GLY A   3       7.300  -9.728  12.998  0.00  0.00    +0.176 C 
BRANCH  11  13
ATOM     12  C   ILE A   2       9.662 -10.122  13.167  0.00  0.00    +0.241 C 
ATOM     13  N   GLY A   3       8.474 -10.085  13.755  0.00  0.00    -0.295 N 
ATOM     14  H   GLY A   3       8.389 -10.314  14.766  0.00  0.00    +0.150 HD
ATOM     15  O   ILE A   2       9.833  -9.870  11.969  0.00  0.00    -0.273 OA
BRANCH  12  16
ATOM     16  CA  ILE A   2      10.823 -10.522  14.059  0.00  0.00    +0.148 C 
BRANCH  16  19
ATOM     17  C   MET A   1      12.145 -12.527  13.764  0.00  0.00    +0.238 C 
ATOM     18  O   MET A   1      11.862 -12.940  14.888  0.00  0.00    -0.274 OA
ATOM     19  N   ILE A   2      11.714 -11.365  13.286  0.00  0.00    -0.297 N 
ATOM     20  H   ILE A   2      12.021 -11.055  12.342  0.00  0.00    +0.150 HD
BRANCH  17  21
ATOM     21  CA  MET A   1      13.042 -13.347  12.849  0.00  0.00    +0.146 C 
BRANCH  21  22
ATOM     22  N   MET A   1      14.203 -13.786  13.611  0.00  0.00    -0.238 NA
ATOM     23  H   MET A   1      14.048 -14.380  14.451  0.00  0.00    +0.142 HD
ENDBRANCH  21  22
BRANCH  21  24
ATOM     24  CB  MET A   1      12.248 -14.556  12.344  0.00  0.00    +0.038 C 
BRANCH  24  25
ATOM     25  CG  MET A   1      13.020 -15.452  11.403  0.00  0.00    +0.060 C 
BRANCH  25  26
ATOM     26  SD  MET A   1      13.289 -14.649   9.838  0.00  0.00    -0.139 S 
ATOM     27  CE  MET A   1      12.106 -15.520   8.797  0.00  0.00    +0.069 C 
ENDBRANCH  25  26
ENDBRANCH  24  25
ENDBRANCH  21  24
ENDBRANCH  17  21
ENDBRANCH  16  19
BRANCH  16  28
ATOM     28  CB  ILE A   2      11.527  -9.256  14.594  0.00  0.00    +0.027 C 
ATOM     29  CG2 ILE A   2      12.497  -9.632  15.697  0.00  0.00    +0.002 C 
BRANCH  28  30
ATOM     30  CG1 ILE A   2      12.240  -8.529  13.455  0.00  0.00    +0.002 C 
ATOM     31  CD1 ILE A   2      12.942  -7.274  13.888  0.00  0.00    +0.000 C 
ENDBRANCH  28  30
ENDBRANCH  16  28
ENDBRANCH  12  16
ENDBRANCH  11  13
ENDBRANCH   7  11
ENDBRANCH   6   9
ENDBRANCH   2   6
ENDBRANCH   1   3
BRANCH   1  32
ATOM     32  C   ILE A   5       2.794  -5.775   9.237  0.00  0.00    +0.241 C 
ATOM     33  O   ILE A   5       1.901  -6.581   8.980  0.00  0.00    -0.273 OA
ATOM     34  N   GLY A   6       3.779  -5.510   8.382  0.00  0.00    -0.295 N 
ATOM     35  H   GLY A   6       4.539  -4.853   8.653  0.00  0.00    +0.150 HD
BRANCH  34  36
ATOM     36  CA  GLY A   6       3.795  -6.138   7.067  0.00  0.00    +0.176 C 
BRANCH  36  37
ATOM     37  C   GLY A   6       4.438  -7.507   6.910  0.00  0.00    +0.243 C 
ATOM     38  N   GLY A   7       4.634  -8.216   8.016  0.00  0.00    -0.295 N 
ATOM     39  H   GLY A   7       4.325  -7.825   8.929  0.00  0.00    +0.150 HD
ATOM     40  O   GLY A   6       4.729  -7.926   5.791  0.00  0.00    -0.273 OA
BRANCH  38  41
ATOM     41  CA  GLY A   7       5.269  -9.524   7.986  0.00  0.00    +0.176 C 
BRANCH  41  42
ATOM     42  C   GLY A   7       6.546  -9.618   8.808  0.00  0.00    +0.243 C 
ATOM     43  O   GLY A   7       6.794  -8.789   9.685  0.00  0.00    -0.273 OA
ATOM     44  N   PHE A   8       7.351 -10.638   8.522  0.00  0.00    -0.297 N 
ATOM     45  H   PHE A   8       7.072 -11.295   7.766  0.00  0.00    +0.150 HD
BRANCH  44  46
ATOM     46  CA  PHE A   8       8.607 -10.874   9.223  0.00  0.00    +0.153 C 
BRANCH  46  47
ATOM     47  C   PHE A   8       9.824 -10.471   8.413  0.00  0.00    +0.241 C 
ATOM     48  N   ILE A   9      10.865 -10.039   9.109  0.00  0.00    -0.298 N 
ATOM     49  H   ILE A   9      10.787  -9.955  10.143  0.00  0.00    +0.150 HD
ATOM     50  O   PHE A   8       9.829 -10.559   7.191  0.00  0.00    -0.273 OA
BRANCH  48  51
ATOM     51  CA  ILE A   9      12.111  -9.681   8.458  0.00  0.00    +0.137 C 
BRANCH  51  52
ATOM     52  CB  ILE A   9      12.357  -8.166   8.461  0.00  0.00    +0.026 C 
ATOM     53  CG2 ILE A   9      11.279  -7.462   7.652  0.00  0.00    +0.002 C 
BRANCH  52  54
ATOM     54  CG1 ILE A   9      12.398  -7.647   9.899  0.00  0.00    +0.002 C 
ATOM     55  CD1 ILE A   9      13.063  -6.293  10.024  0.00  0.00    +0.000 C 
ENDBRANCH  52  54
ENDBRANCH  51  52
BRANCH  51  56
ATOM     56  C   ILE A   9      13.235 -10.374   9.225  0.00  0.00    +0.227 C 
ATOM     57  O   ILE A   9      13.148 -10.571  10.440  0.00  0.00    -0.286 OA
ENDBRANCH  51  56
ENDBRANCH  48  51
ENDBRANCH  46  47
BRANCH  46  58
ATOM     58  CB  PHE A   8       8.769 -12.356   9.565  0.00  0.00    +0.055 C 
BRANCH  58  59
ATOM     59  CG  PHE A   8       7.937 -12.813  10.720  0.00  0.00    -0.020 A 
ATOM     60  CD2 PHE A   8       8.528 -13.058  11.956  0.00  0.00    -0.004 A 
ATOM     61  CE2 PHE A   8       7.758 -13.472  13.033  0.00  0.00    -0.000 A 
ATOM     62  CZ  PHE A   8       6.390 -13.647  12.878  0.00  0.00    -0.000 A 
ATOM     63  CE1 PHE A   8       5.795 -13.410  11.657  0.00  0.00    -0.000 A 
ATOM     64  CD1 PHE A   8       6.563 -12.994  10.582  0.00  0.00    -0.004 A 
ENDBRANCH  58  59
ENDBRANCH  46  58
ENDBRANCH  44  46
ENDBRANCH  41  42
ENDBRANCH  38  41
ENDBRANCH  36  37
ENDBRANCH  34  36
ENDBRANCH   1  32
BRANCH   1  65
ATOM     65  CB  ILE A   5       2.382  -3.570  10.367  0.00  0.00    +0.027 C 
ATOM     66  CG2 ILE A   5       1.269  -3.481   9.338  0.00  0.00    +0.002 C 
BRANCH  65  67
ATOM     67  CG1 ILE A   5       1.920  -2.959  11.694  0.00  0.00    +0.002 C 
ATOM     68  CD1 ILE A   5       0.773  -3.710  12.371  0.00  0.00    +0.000 C 
ENDBRANCH  65  67
ENDBRANCH   1  65
TORSDOF 29
REMARK  Name = ../refined-set-2016/1k6p/1k6p_pocket.pdb
REMARK  229 active torsions:
REMARK  status: ('A' for Active; 'I' for Inactive)
REMARK    1  A    between atoms: _1  and  _3
REMARK    2  A    between atoms: _3  and  _4
REMARK    3  A    between atoms: _3  and  _6
REMARK    4  A    between atoms: _6  and  _7
REMARK    5  A    between atoms: _7  and  _8
REMARK    6  A    between atoms: _8  and  _9
REMARK    7  A    between atoms: _18  and  _20
REMARK    8  A    between atoms: _20  and  _21
REMARK    9  A    between atoms: _20  and  _23
REMARK   10  A    between atoms: _23  and  _24
REMARK   11  A    between atoms: _27  and  _29
REMARK   12  A    between atoms: _29  and  _30
REMARK   13  A    between atoms: _29  and  _32
REMARK   14  A    between atoms: _32  and  _33
REMARK   15  A    between atoms: _36  and  _38
REMARK   16  A    between atoms: _38  and  _39
REMARK   17  A    between atoms: _38  and  _41
REMARK   18  A    between atoms: _41  and  _42
REMARK   19  A    between atoms: _45  and  _47
REMARK   20  A    between atoms: _47  and  _48
REMARK   21  A    between atoms: _47  and  _50
REMARK   22  A    between atoms: _50  and  _51
REMARK   23  A    between atoms: _54  and  _56
REMARK   24  A    between atoms: _56  and  _57
REMARK   25  A    between atoms: _56  and  _59
REMARK   26  A    between atoms: _59  and  _60
REMARK   27  A    between atoms: _63  and  _65
REMARK   28  A    between atoms: _65  and  _66
REMARK   29  A    between atoms: _68  and  _70
REMARK   30  A    between atoms: _70  and  _71
REMARK   31  A    between atoms: _74  and  _76
REMARK   32  A    between atoms: _76  and  _77
REMARK   33  A    between atoms: _76  and  _79
REMARK   34  A    between atoms: _79  and  _80
REMARK   35  A    between atoms: _83  and  _85
REMARK   36  A    between atoms: _85  and  _86
REMARK   37  A    between atoms: _85  and  _88
REMARK   38  A    between atoms: _88  and  _89
REMARK   39  A    between atoms: _92  and  _94
REMARK   40  A    between atoms: _94  and  _95
REMARK   41  A    between atoms: _94  and  _97
REMARK   42  A    between atoms: _97  and  _98
REMARK   43  A    between atoms: _101  and  _103
REMARK   44  A    between atoms: _103  and  _104
REMARK   45  A    between atoms: _103  and  _106
REMARK   46  A    between atoms: _109  and  _111
REMARK   47  A    between atoms: _111  and  _112
REMARK   48  A    between atoms: _111  and  _114
REMARK   49  A    between atoms: _114  and  _115
REMARK   50  A    between atoms: _115  and  _116
REMARK   51  A    between atoms: _118  and  _120
REMARK   52  A    between atoms: _120  and  _121
REMARK   53  A    between atoms: _120  and  _123
REMARK   54  A    between atoms: _123  and  _124
REMARK   55  A    between atoms: _127  and  _129
REMARK   56  A    between atoms: _129  and  _130
REMARK   57  A    between atoms: _132  and  _134
REMARK   58  A    between atoms: _134  and  _135
REMARK   59  A    between atoms: _137  and  _139
REMARK   60  A    between atoms: _139  and  _140
REMARK   61  A    between atoms: _139  and  _142
REMARK   62  A    between atoms: _142  and  _143
REMARK   63  A    between atoms: _146  and  _148
REMARK   64  A    between atoms: _148  and  _149
REMARK   65  A    between atoms: _151  and  _153
REMARK   66  A    between atoms: _153  and  _154
REMARK   67  A    between atoms: _156  and  _158
REMARK   68  A    between atoms: _158  and  _159
REMARK   69  A    between atoms: _158  and  _161
REMARK   70  A    between atoms: _161  and  _162
REMARK   71  A    between atoms: _168  and  _170
REMARK   72  A    between atoms: _170  and  _171
REMARK   73  A    between atoms: _170  and  _173
REMARK   74  A    between atoms: _173  and  _174
REMARK   75  A    between atoms: _177  and  _179
REMARK   76  A    between atoms: _179  and  _180
REMARK   77  A    between atoms: _179  and  _182
REMARK   78  A    between atoms: _185  and  _187
REMARK   79  A    between atoms: _187  and  _188
REMARK   80  A    between atoms: _187  and  _190
REMARK   81  A    between atoms: _190  and  _191
REMARK   82  A    between atoms: _194  and  _196
REMARK   83  A    between atoms: _196  and  _197
REMARK   84  A    between atoms: _196  and  _199
REMARK   85  A    between atoms: _199  and  _200
REMARK   86  A    between atoms: _204  and  _205
REMARK   87  A    between atoms: _210  and  _212
REMARK   88  A    between atoms: _212  and  _213
REMARK   89  A    between atoms: _212  and  _215
REMARK   90  A    between atoms: _215  and  _216
REMARK   91  A    between atoms: _219  and  _221
REMARK   92  A    between atoms: _221  and  _222
REMARK   93  A    between atoms: _221  and  _224
REMARK   94  A    between atoms: _224  and  _225
REMARK   95  A    between atoms: _230  and  _232
REMARK   96  A    between atoms: _232  and  _233
REMARK   97  A    between atoms: _232  and  _235
REMARK   98  A    between atoms: _238  and  _240
REMARK   99  A    between atoms: _240  and  _241
REMARK  100  A    between atoms: _240  and  _243
REMARK  101  A    between atoms: _243  and  _244
REMARK  102  A    between atoms: _247  and  _249
REMARK  103  A    between atoms: _249  and  _250
REMARK  104  A    between atoms: _252  and  _254
REMARK  105  A    between atoms: _254  and  _255
REMARK  106  A    between atoms: _254  and  _257
REMARK  107  A    between atoms: _257  and  _258
REMARK  108  A    between atoms: _258  and  _259
REMARK  109  A    between atoms: _259  and  _260
REMARK  110  A    between atoms: _269  and  _271
REMARK  111  A    between atoms: _271  and  _272
REMARK  112  A    between atoms: _271  and  _274
REMARK  113  A    between atoms: _274  and  _275
REMARK  114  A    between atoms: _275  and  _276
REMARK  115  A    between atoms: _276  and  _277
REMARK  116  A    between atoms: _286  and  _288
REMARK  117  A    between atoms: _288  and  _289
REMARK  118  A    between atoms: _288  and  _291
REMARK  119  A    between atoms: _291  and  _292
REMARK  120  A    between atoms: _295  and  _297
REMARK  121  A    between atoms: _297  and  _298
REMARK  122  A    between atoms: _297  and  _300
REMARK  123  A    between atoms: _300  and  _301
REMARK  124  A    between atoms: _304  and  _306
REMARK  125  A    between atoms: _306  and  _307
REMARK  126  A    between atoms: _306  and  _309
REMARK  127  A    between atoms: _309  and  _310
REMARK  128  A    between atoms: _313  and  _315
REMARK  129  A    between atoms: _315  and  _316
REMARK  130  A    between atoms: _315  and  _318
REMARK  131  A    between atoms: _318  and  _319
REMARK  132  A    between atoms: _322  and  _324
REMARK  133  A    between atoms: _324  and  _325
REMARK  134  A    between atoms: _327  and  _329
REMARK  135  A    between atoms: _329  and  _330
REMARK  136  A    between atoms: _333  and  _335
REMARK  137  A    between atoms: _335  and  _336
REMARK  138  A    between atoms: _335  and  _338
REMARK  139  A    between atoms: _338  and  _339
REMARK  140  A    between atoms: _342  and  _344
REMARK  141  A    between atoms: _344  and  _345
REMARK  142  A    between atoms: _344  and  _347
REMARK  143  A    between atoms: _347  and  _348
REMARK  144  A    between atoms: _351  and  _353
REMARK  145  A    between atoms: _353  and  _354
REMARK  146  A    between atoms: _353  and  _356
REMARK  147  A    between atoms: _356  and  _357
REMARK  148  A    between atoms: _360  and  _362
REMARK  149  A    between atoms: _362  and  _363
REMARK  150  A    between atoms: _362  and  _365
REMARK  151  A    between atoms: _368  and  _370
REMARK  152  A    between atoms: _370  and  _371
REMARK  153  A    between atoms: _370  and  _373
REMARK  154  A    between atoms: _373  and  _374
REMARK  155  A    between atoms: _377  and  _379
REMARK  156  A    between atoms: _379  and  _380
REMARK  157  A    between atoms: _379  and  _382
REMARK  158  A    between atoms: _382  and  _383
REMARK  159  A    between atoms: _383  and  _384
REMARK  160  A    between atoms: _384  and  _385
REMARK  161  A    between atoms: _385  and  _386
REMARK  162  A    between atoms: _390  and  _392
REMARK  163  A    between atoms: _392  and  _393
REMARK  164  A    between atoms: _392  and  _395
REMARK  165  A    between atoms: _395  and  _396
REMARK  166  A    between atoms: _396  and  _397
REMARK  167  A    between atoms: _399  and  _401
REMARK  168  A    between atoms: _401  and  _402
REMARK  169  A    between atoms: _401  and  _404
REMARK  170  A    between atoms: _404  and  _405
REMARK  171  A    between atoms: _408  and  _410
REMARK  172  A    between atoms: _410  and  _411
REMARK  173  A    between atoms: _413  and  _415
REMARK  174  A    between atoms: _415  and  _416
REMARK  175  A    between atoms: _418  and  _420
REMARK  176  A    between atoms: _420  and  _421
REMARK  177  A    between atoms: _420  and  _423
REMARK  178  A    between atoms: _423  and  _424
REMARK  179  A    between atoms: _427  and  _429
REMARK  180  A    between atoms: _429  and  _430
REMARK  181  A    between atoms: _432  and  _434
REMARK  182  A    between atoms: _434  and  _435
REMARK  183  A    between atoms: _437  and  _439
REMARK  184  A    between atoms: _439  and  _440
REMARK  185  A    between atoms: _439  and  _442
REMARK  186  A    between atoms: _442  and  _443
REMARK  187  A    between atoms: _449  and  _451
REMARK  188  A    between atoms: _451  and  _452
REMARK  189  A    between atoms: _451  and  _454
REMARK  190  A    between atoms: _454  and  _455
REMARK  191  A    between atoms: _458  and  _460
REMARK  192  A    between atoms: _460  and  _461
REMARK  193  A    between atoms: _460  and  _463
REMARK  194  A    between atoms: _466  and  _468
REMARK  195  A    between atoms: _468  and  _469
REMARK  196  A    between atoms: _468  and  _471
REMARK  197  A    between atoms: _471  and  _472
REMARK  198  A    between atoms: _475  and  _477
REMARK  199  A    between atoms: _477  and  _478
REMARK  200  A    between atoms: _477  and  _480
REMARK  201  A    between atoms: _480  and  _481
REMARK  202  A    between atoms: _485  and  _486
REMARK  203  A    between atoms: _491  and  _493
REMARK  204  A    between atoms: _493  and  _494
REMARK  205  A    between atoms: _493  and  _496
REMARK  206  A    between atoms: _496  and  _497
REMARK  207  A    between atoms: _500  and  _502
REMARK  208  A    between atoms: _502  and  _503
REMARK  209  A    between atoms: _502  and  _505
REMARK  210  A    between atoms: _505  and  _506
REMARK  211  A    between atoms: _511  and  _513
REMARK  212  A    between atoms: _513  and  _514
REMARK  213  A    between atoms: _513  and  _516
REMARK  214  A    between atoms: _519  and  _521
REMARK  215  A    between atoms: _521  and  _522
REMARK  216  A    between atoms: _521  and  _524
REMARK  217  A    between atoms: _524  and  _525
REMARK  218  A    between atoms: _528  and  _530
REMARK  219  A    between atoms: _530  and  _531
REMARK  220  A    between atoms: _533  and  _535
REMARK  221  A    between atoms: _535  and  _536
REMARK  222  A    between atoms: _535  and  _538
REMARK  223  A    between atoms: _538  and  _539
REMARK  224  A    between atoms: _539  and  _540
REMARK  225  A    between atoms: _540  and  _541
REMARK  226  A    between atoms: _550  and  _552
REMARK  227  A    between atoms: _552  and  _553
REMARK  228  A    between atoms: _552  and  _555
REMARK  229  A    between atoms: _555  and  _556
REMARK                            x       y       z     vdW  Elec       q    Type
REMARK                         _______ _______ _______ _____ _____    ______ ____
ROOT
ATOM      1  CA  VAL A   1      17.624  -9.537  11.582  0.00  0.00    +0.133 C 
ENDROOT
BRANCH   1   2
ATOM      2  CB  VAL A   1      16.865  -8.643  12.608  0.00  0.00    +0.023 C 
ATOM      3  CG2 VAL A   1      16.304  -9.501  13.741  0.00  0.00    +0.002 C 
ATOM      4  CG1 VAL A   1      15.751  -7.881  11.916  0.00  0.00    +0.002 C 
ENDBRANCH   1   2
BRANCH   1   5
ATOM      5  N   VAL A   1      16.741 -10.510  10.950  0.00  0.00    -0.239 NA
ATOM      6  H   VAL A   1      16.430 -11.343  11.489  0.00  0.00    +0.142 HD
ENDBRANCH   1   5
BRANCH   1   7
ATOM      7  C   VAL A   1      18.760 -10.217  12.321  0.00  0.00    +0.224 C 
ATOM      8  O   VAL A   1      18.715 -11.416  12.603  0.00  0.00    -0.287 OA
ENDBRANCH   1   7
TORSDOF 3
REMARK  Name = ../refined-set-2016/1k6p/1k6p_pocket.pdb
REMARK  229 active torsions:
REMARK  status: ('A' for Active; 'I' for Inactive)
REMARK    1  A    between atoms: _1  and  _3
REMARK    2  A    between atoms: _3  and  _4
REMARK    3  A    between atoms: _3  and  _6
REMARK    4  A    between atoms: _6  and  _7
REMARK    5  A    between atoms: _7  and  _8
REMARK    6  A    between atoms: _8  and  _9
REMARK    7  A    between atoms: _18  and  _20
REMARK    8  A    between atoms: _20  and  _21
REMARK    9  A    between atoms: _20  and  _23
REMARK   10  A    between atoms: _23  and  _24
REMARK   11  A    between atoms: _27  and  _29
REMARK   12  A    between atoms: _29  and  _30
REMARK   13  A    between atoms: _29  and  _32
REMARK   14  A    between atoms: _32  and  _33
REMARK   15  A    between atoms: _36  and  _38
REMARK   16  A    between atoms: _38  and  _39
REMARK   17  A    between atoms: _38  and  _41
REMARK   18  A    between atoms: _41  and  _42
REMARK   19  A    between atoms: _45  and  _47
REMARK   20  A    between atoms: _47  and  _48
REMARK   21  A    between atoms: _47  and  _50
REMARK   22  A    between atoms: _50  and  _51
REMARK   23  A    between atoms: _54  and  _56
REMARK   24  A    between atoms: _56  and  _57
REMARK   25  A    between atoms: _56  and  _59
REMARK   26  A    between atoms: _59  and  _60
REMARK   27  A    between atoms: _63  and  _65
REMARK   28  A    between atoms: _65  and  _66
REMARK   29  A    between atoms: _68  and  _70
REMARK   30  A    between atoms: _70  and  _71
REMARK   31  A    between atoms: _74  and  _76
REMARK   32  A    between atoms: _76  and  _77
REMARK   33  A    between atoms: _76  and  _79
REMARK   34  A    between atoms: _79  and  _80
REMARK   35  A    between atoms: _83  and  _85
REMARK   36  A    between atoms: _85  and  _86
REMARK   37  A    between atoms: _85  and  _88
REMARK   38  A    between atoms: _88  and  _89
REMARK   39  A    between atoms: _92  and  _94
REMARK   40  A    between atoms: _94  and  _95
REMARK   41  A    between atoms: _94  and  _97
REMARK   42  A    between atoms: _97  and  _98
REMARK   43  A    between atoms: _101  and  _103
REMARK   44  A    between atoms: _103  and  _104
REMARK   45  A    between atoms: _103  and  _106
REMARK   46  A    between atoms: _109  and  _111
REMARK   47  A    between atoms: _111  and  _112
REMARK   48  A    between atoms: _111  and  _114
REMARK   49  A    between atoms: _114  and  _115
REMARK   50  A    between atoms: _115  and  _116
REMARK   51  A    between atoms: _118  and  _120
REMARK   52  A    between atoms: _120  and  _121
REMARK   53  A    between atoms: _120  and  _123
REMARK   54  A    between atoms: _123  and  _124
REMARK   55  A    between atoms: _127  and  _129
REMARK   56  A    between atoms: _129  and  _130
REMARK   57  A    between atoms: _132  and  _134
REMARK   58  A    between atoms: _134  and  _135
REMARK   59  A    between atoms: _137  and  _139
REMARK   60  A    between atoms: _139  and  _140
REMARK   61  A    between atoms: _139  and  _142
REMARK   62  A    between atoms: _142  and  _143
REMARK   63  A    between atoms: _146  and  _148
REMARK   64  A    between atoms: _148  and  _149
REMARK   65  A    between atoms: _151  and  _153
REMARK   66  A    between atoms: _153  and  _154
REMARK   67  A    between atoms: _156  and  _158
REMARK   68  A    between atoms: _158  and  _159
REMARK   69  A    between atoms: _158  and  _161
REMARK   70  A    between atoms: _161  and  _162
REMARK   71  A    between atoms: _168  and  _170
REMARK   72  A    between atoms: _170  and  _171
REMARK   73  A    between atoms: _170  and  _173
REMARK   74  A    between atoms: _173  and  _174
REMARK   75  A    between atoms: _177  and  _179
REMARK   76  A    between atoms: _179  and  _180
REMARK   77  A    between atoms: _179  and  _182
REMARK   78  A    between atoms: _185  and  _187
REMARK   79  A    between atoms: _187  and  _188
REMARK   80  A    between atoms: _187  and  _190
REMARK   81  A    between atoms: _190  and  _191
REMARK   82  A    between atoms: _194  and  _196
REMARK   83  A    between atoms: _196  and  _197
REMARK   84  A    between atoms: _196  and  _199
REMARK   85  A    between atoms: _199  and  _200
REMARK   86  A    between atoms: _204  and  _205
REMARK   87  A    between atoms: _210  and  _212
REMARK   88  A    between atoms: _212  and  _213
REMARK   89  A    between atoms: _212  and  _215
REMARK   90  A    between atoms: _215  and  _216
REMARK   91  A    between atoms: _219  and  _221
REMARK   92  A    between atoms: _221  and  _222
REMARK   93  A    between atoms: _221  and  _224
REMARK   94  A    between atoms: _224  and  _225
REMARK   95  A    between atoms: _230  and  _232
REMARK   96  A    between atoms: _232  and  _233
REMARK   97  A    between atoms: _232  and  _235
REMARK   98  A    between atoms: _238  and  _240
REMARK   99  A    between atoms: _240  and  _241
REMARK  100  A    between atoms: _240  and  _243
REMARK  101  A    between atoms: _243  and  _244
REMARK  102  A    between atoms: _247  and  _249
REMARK  103  A    between atoms: _249  and  _250
REMARK  104  A    between atoms: _252  and  _254
REMARK  105  A    between atoms: _254  and  _255
REMARK  106  A    between atoms: _254  and  _257
REMARK  107  A    between atoms: _257  and  _258
REMARK  108  A    between atoms: _258  and  _259
REMARK  109  A    between atoms: _259  and  _260
REMARK  110  A    between atoms: _269  and  _271
REMARK  111  A    between atoms: _271  and  _272
REMARK  112  A    between atoms: _271  and  _274
REMARK  113  A    between atoms: _274  and  _275
REMARK  114  A    between atoms: _275  and  _276
REMARK  115  A    between atoms: _276  and  _277
REMARK  116  A    between atoms: _286  and  _288
REMARK  117  A    between atoms: _288  and  _289
REMARK  118  A    between atoms: _288  and  _291
REMARK  119  A    between atoms: _291  and  _292
REMARK  120  A    between atoms: _295  and  _297
REMARK  121  A    between atoms: _297  and  _298
REMARK  122  A    between atoms: _297  and  _300
REMARK  123  A    between atoms: _300  and  _301
REMARK  124  A    between atoms: _304  and  _306
REMARK  125  A    between atoms: _306  and  _307
REMARK  126  A    between atoms: _306  and  _309
REMARK  127  A    between atoms: _309  and  _310
REMARK  128  A    between atoms: _313  and  _315
REMARK  129  A    between atoms: _315  and  _316
REMARK  130  A    between atoms: _315  and  _318
REMARK  131  A    between atoms: _318  and  _319
REMARK  132  A    between atoms: _322  and  _324
REMARK  133  A    between atoms: _324  and  _325
REMARK  134  A    between atoms: _327  and  _329
REMARK  135  A    between atoms: _329  and  _330
REMARK  136  A    between atoms: _333  and  _335
REMARK  137  A    between atoms: _335  and  _336
REMARK  138  A    between atoms: _335  and  _338
REMARK  139  A    between atoms: _338  and  _339
REMARK  140  A    between atoms: _342  and  _344
REMARK  141  A    between atoms: _344  and  _345
REMARK  142  A    between atoms: _344  and  _347
REMARK  143  A    between atoms: _347  and  _348
REMARK  144  A    between atoms: _351  and  _353
REMARK  145  A    between atoms: _353  and  _354
REMARK  146  A    between atoms: _353  and  _356
REMARK  147  A    between atoms: _356  and  _357
REMARK  148  A    between atoms: _360  and  _362
REMARK  149  A    between atoms: _362  and  _363
REMARK  150  A    between atoms: _362  and  _365
REMARK  151  A    between atoms: _368  and  _370
REMARK  152  A    between atoms: _370  and  _371
REMARK  153  A    between atoms: _370  and  _373
REMARK  154  A    between atoms: _373  and  _374
REMARK  155  A    between atoms: _377  and  _379
REMARK  156  A    between atoms: _379  and  _380
REMARK  157  A    between atoms: _379  and  _382
REMARK  158  A    between atoms: _382  and  _383
REMARK  159  A    between atoms: _383  and  _384
REMARK  160  A    between atoms: _384  and  _385
REMARK  161  A    between atoms: _385  and  _386
REMARK  162  A    between atoms: _390  and  _392
REMARK  163  A    between atoms: _392  and  _393
REMARK  164  A    between atoms: _392  and  _395
REMARK  165  A    between atoms: _395  and  _396
REMARK  166  A    between atoms: _396  and  _397
REMARK  167  A    between atoms: _399  and  _401
REMARK  168  A    between atoms: _401  and  _402
REMARK  169  A    between atoms: _401  and  _404
REMARK  170  A    between atoms: _404  and  _405
REMARK  171  A    between atoms: _408  and  _410
REMARK  172  A    between atoms: _410  and  _411
REMARK  173  A    between atoms: _413  and  _415
REMARK  174  A    between atoms: _415  and  _416
REMARK  175  A    between atoms: _418  and  _420
REMARK  176  A    between atoms: _420  and  _421
REMARK  177  A    between atoms: _420  and  _423
REMARK  178  A    between atoms: _423  and  _424
REMARK  179  A    between atoms: _427  and  _429
REMARK  180  A    between atoms: _429  and  _430
REMARK  181  A    between atoms: _432  and  _434
REMARK  182  A    between atoms: _434  and  _435
REMARK  183  A    between atoms: _437  and  _439
REMARK  184  A    between atoms: _439  and  _440
REMARK  185  A    between atoms: _439  and  _442
REMARK  186  A    between atoms: _442  and  _443
REMARK  187  A    between atoms: _449  and  _451
REMARK  188  A    between atoms: _451  and  _452
REMARK  189  A    between atoms: _451  and  _454
REMARK  190  A    between atoms: _454  and  _455
REMARK  191  A    between atoms: _458  and  _460
REMARK  192  A    between atoms: _460  and  _461
REMARK  193  A    between atoms: _460  and  _463
REMARK  194  A    between atoms: _466  and  _468
REMARK  195  A    between atoms: _468  and  _469
REMARK  196  A    between atoms: _468  and  _471
REMARK  197  A    between atoms: _471  and  _472
REMARK  198  A    between atoms: _475  and  _477
REMARK  199  A    between atoms: _477  and  _478
REMARK  200  A    between atoms: _477  and  _480
REMARK  201  A    between atoms: _480  and  _481
REMARK  202  A    between atoms: _485  and  _486
REMARK  203  A    between atoms: _491  and  _493
REMARK  204  A    between atoms: _493  and  _494
REMARK  205  A    between atoms: _493  and  _496
REMARK  206  A    between atoms: _496  and  _497
REMARK  207  A    between atoms: _500  and  _502
REMARK  208  A    between atoms: _502  and  _503
REMARK  209  A    between atoms: _502  and  _505
REMARK  210  A    between atoms: _505  and  _506
REMARK  211  A    between atoms: _511  and  _513
REMARK  212  A    between atoms: _513  and  _514
REMARK  213  A    between atoms: _513  and  _516
REMARK  214  A    between atoms: _519  and  _521
REMARK  215  A    between atoms: _521  and  _522
REMARK  216  A    between atoms: _521  and  _524
REMARK  217  A    between atoms: _524  and  _525
REMARK  218  A    between atoms: _528  and  _530
REMARK  219  A    between atoms: _530  and  _531
REMARK  220  A    between atoms: _533  and  _535
REMARK  221  A    between atoms: _535  and  _536
REMARK  222  A    between atoms: _535  and  _538
REMARK  223  A    between atoms: _538  and  _539
REMARK  224  A    between atoms: _539  and  _540
REMARK  225  A    between atoms: _540  and  _541
REMARK  226  A    between atoms: _550  and  _552
REMARK  227  A    between atoms: _552  and  _553
REMARK  228  A    between atoms: _552  and  _555
REMARK  229  A    between atoms: _555  and  _556
REMARK                            x       y       z     vdW  Elec       q    Type
REMARK                         _______ _______ _______ _____ _____    ______ ____
ROOT
ATOM      1  CA  LEU A   1      18.468  -6.190  16.499  0.00  0.00    +0.133 C 
ENDROOT
BRANCH   1   2
ATOM      2  N   LEU A   1      18.616  -5.447  17.738  0.00  0.00    -0.239 NA
ATOM      3  H   LEU A   1      17.858  -4.800  18.036  0.00  0.00    +0.142 HD
ENDBRANCH   1   2
BRANCH   1   4
ATOM      4  C   LEU A   1      18.811  -5.276  15.332  0.00  0.00    +0.224 C 
ATOM      5  O   LEU A   1      18.346  -4.141  15.278  0.00  0.00    -0.287 OA
ENDBRANCH   1   4
BRANCH   1   6
ATOM      6  CB  LEU A   1      17.034  -6.694  16.352  0.00  0.00    +0.025 C 
BRANCH   6   7
ATOM      7  CG  LEU A   1      16.469  -7.495  17.527  0.00  0.00    +0.002 C 
ATOM      8  CD2 LEU A   1      17.375  -8.682  17.833  0.00  0.00    +0.000 C 
ATOM      9  CD1 LEU A   1      15.060  -7.960  17.185  0.00  0.00    +0.000 C 
ENDBRANCH   6   7
ENDBRANCH   1   6
TORSDOF 4
REMARK  Name = ../refined-set-2016/1k6p/1k6p_pocket.pdb
REMARK  229 active torsions:
REMARK  status: ('A' for Active; 'I' for Inactive)
REMARK    1  A    between atoms: _1  and  _3
REMARK    2  A    between atoms: _3  and  _4
REMARK    3  A    between atoms: _3  and  _6
REMARK    4  A    between atoms: _6  and  _7
REMARK    5  A    between atoms: _7  and  _8
REMARK    6  A    between atoms: _8  and  _9
REMARK    7  A    between atoms: _18  and  _20
REMARK    8  A    between atoms: _20  and  _21
REMARK    9  A    between atoms: _20  and  _23
REMARK   10  A    between atoms: _23  and  _24
REMARK   11  A    between atoms: _27  and  _29
REMARK   12  A    between atoms: _29  and  _30
REMARK   13  A    between atoms: _29  and  _32
REMARK   14  A    between atoms: _32  and  _33
REMARK   15  A    between atoms: _36  and  _38
REMARK   16  A    between atoms: _38  and  _39
REMARK   17  A    between atoms: _38  and  _41
REMARK   18  A    between atoms: _41  and  _42
REMARK   19  A    between atoms: _45  and  _47
REMARK   20  A    between atoms: _47  and  _48
REMARK   21  A    between atoms: _47  and  _50
REMARK   22  A    between atoms: _50  and  _51
REMARK   23  A    between atoms: _54  and  _56
REMARK   24  A    between atoms: _56  and  _57
REMARK   25  A    between atoms: _56  and  _59
REMARK   26  A    between atoms: _59  and  _60
REMARK   27  A    between atoms: _63  and  _65
REMARK   28  A    between atoms: _65  and  _66
REMARK   29  A    between atoms: _68  and  _70
REMARK   30  A    between atoms: _70  and  _71
REMARK   31  A    between atoms: _74  and  _76
REMARK   32  A    between atoms: _76  and  _77
REMARK   33  A    between atoms: _76  and  _79
REMARK   34  A    between atoms: _79  and  _80
REMARK   35  A    between atoms: _83  and  _85
REMARK   36  A    between atoms: _85  and  _86
REMARK   37  A    between atoms: _85  and  _88
REMARK   38  A    between atoms: _88  and  _89
REMARK   39  A    between atoms: _92  and  _94
REMARK   40  A    between atoms: _94  and  _95
REMARK   41  A    between atoms: _94  and  _97
REMARK   42  A    between atoms: _97  and  _98
REMARK   43  A    between atoms: _101  and  _103
REMARK   44  A    between atoms: _103  and  _104
REMARK   45  A    between atoms: _103  and  _106
REMARK   46  A    between atoms: _109  and  _111
REMARK   47  A    between atoms: _111  and  _112
REMARK   48  A    between atoms: _111  and  _114
REMARK   49  A    between atoms: _114  and  _115
REMARK   50  A    between atoms: _115  and  _116
REMARK   51  A    between atoms: _118  and  _120
REMARK   52  A    between atoms: _120  and  _121
REMARK   53  A    between atoms: _120  and  _123
REMARK   54  A    between atoms: _123  and  _124
REMARK   55  A    between atoms: _127  and  _129
REMARK   56  A    between atoms: _129  and  _130
REMARK   57  A    between atoms: _132  and  _134
REMARK   58  A    between atoms: _134  and  _135
REMARK   59  A    between atoms: _137  and  _139
REMARK   60  A    between atoms: _139  and  _140
REMARK   61  A    between atoms: _139  and  _142
REMARK   62  A    between atoms: _142  and  _143
REMARK   63  A    between atoms: _146  and  _148
REMARK   64  A    between atoms: _148  and  _149
REMARK   65  A    between atoms: _151  and  _153
REMARK   66  A    between atoms: _153  and  _154
REMARK   67  A    between atoms: _156  and  _158
REMARK   68  A    between atoms: _158  and  _159
REMARK   69  A    between atoms: _158  and  _161
REMARK   70  A    between atoms: _161  and  _162
REMARK   71  A    between atoms: _168  and  _170
REMARK   72  A    between atoms: _170  and  _171
REMARK   73  A    between atoms: _170  and  _173
REMARK   74  A    between atoms: _173  and  _174
REMARK   75  A    between atoms: _177  and  _179
REMARK   76  A    between atoms: _179  and  _180
REMARK   77  A    between atoms: _179  and  _182
REMARK   78  A    between atoms: _185  and  _187
REMARK   79  A    between atoms: _187  and  _188
REMARK   80  A    between atoms: _187  and  _190
REMARK   81  A    between atoms: _190  and  _191
REMARK   82  A    between atoms: _194  and  _196
REMARK   83  A    between atoms: _196  and  _197
REMARK   84  A    between atoms: _196  and  _199
REMARK   85  A    between atoms: _199  and  _200
REMARK   86  A    between atoms: _204  and  _205
REMARK   87  A    between atoms: _210  and  _212
REMARK   88  A    between atoms: _212  and  _213
REMARK   89  A    between atoms: _212  and  _215
REMARK   90  A    between atoms: _215  and  _216
REMARK   91  A    between atoms: _219  and  _221
REMARK   92  A    between atoms: _221  and  _222
REMARK   93  A    between atoms: _221  and  _224
REMARK   94  A    between atoms: _224  and  _225
REMARK   95  A    between atoms: _230  and  _232
REMARK   96  A    between atoms: _232  and  _233
REMARK   97  A    between atoms: _232  and  _235
REMARK   98  A    between atoms: _238  and  _240
REMARK   99  A    between atoms: _240  and  _241
REMARK  100  A    between atoms: _240  and  _243
REMARK  101  A    between atoms: _243  and  _244
REMARK  102  A    between atoms: _247  and  _249
REMARK  103  A    between atoms: _249  and  _250
REMARK  104  A    between atoms: _252  and  _254
REMARK  105  A    between atoms: _254  and  _255
REMARK  106  A    between atoms: _254  and  _257
REMARK  107  A    between atoms: _257  and  _258
REMARK  108  A    between atoms: _258  and  _259
REMARK  109  A    between atoms: _259  and  _260
REMARK  110  A    between atoms: _269  and  _271
REMARK  111  A    between atoms: _271  and  _272
REMARK  112  A    between atoms: _271  and  _274
REMARK  113  A    between atoms: _274  and  _275
REMARK  114  A    between atoms: _275  and  _276
REMARK  115  A    between atoms: _276  and  _277
REMARK  116  A    between atoms: _286  and  _288
REMARK  117  A    between atoms: _288  and  _289
REMARK  118  A    between atoms: _288  and  _291
REMARK  119  A    between atoms: _291  and  _292
REMARK  120  A    between atoms: _295  and  _297
REMARK  121  A    between atoms: _297  and  _298
REMARK  122  A    between atoms: _297  and  _300
REMARK  123  A    between atoms: _300  and  _301
REMARK  124  A    between atoms: _304  and  _306
REMARK  125  A    between atoms: _306  and  _307
REMARK  126  A    between atoms: _306  and  _309
REMARK  127  A    between atoms: _309  and  _310
REMARK  128  A    between atoms: _313  and  _315
REMARK  129  A    between atoms: _315  and  _316
REMARK  130  A    between atoms: _315  and  _318
REMARK  131  A    between atoms: _318  and  _319
REMARK  132  A    between atoms: _322  and  _324
REMARK  133  A    between atoms: _324  and  _325
REMARK  134  A    between atoms: _327  and  _329
REMARK  135  A    between atoms: _329  and  _330
REMARK  136  A    between atoms: _333  and  _335
REMARK  137  A    between atoms: _335  and  _336
REMARK  138  A    between atoms: _335  and  _338
REMARK  139  A    between atoms: _338  and  _339
REMARK  140  A    between atoms: _342  and  _344
REMARK  141  A    between atoms: _344  and  _345
REMARK  142  A    between atoms: _344  and  _347
REMARK  143  A    between atoms: _347  and  _348
REMARK  144  A    between atoms: _351  and  _353
REMARK  145  A    between atoms: _353  and  _354
REMARK  146  A    between atoms: _353  and  _356
REMARK  147  A    between atoms: _356  and  _357
REMARK  148  A    between atoms: _360  and  _362
REMARK  149  A    between atoms: _362  and  _363
REMARK  150  A    between atoms: _362  and  _365
REMARK  151  A    between atoms: _368  and  _370
REMARK  152  A    between atoms: _370  and  _371
REMARK  153  A    between atoms: _370  and  _373
REMARK  154  A    between atoms: _373  and  _374
REMARK  155  A    between atoms: _377  and  _379
REMARK  156  A    between atoms: _379  and  _380
REMARK  157  A    between atoms: _379  and  _382
REMARK  158  A    between atoms: _382  and  _383
REMARK  159  A    between atoms: _383  and  _384
REMARK  160  A    between atoms: _384  and  _385
REMARK  161  A    between atoms: _385  and  _386
REMARK  162  A    between atoms: _390  and  _392
REMARK  163  A    between atoms: _392  and  _393
REMARK  164  A    between atoms: _392  and  _395
REMARK  165  A    between atoms: _395  and  _396
REMARK  166  A    between atoms: _396  and  _397
REMARK  167  A    between atoms: _399  and  _401
REMARK  168  A    between atoms: _401  and  _402
REMARK  169  A    between atoms: _401  and  _404
REMARK  170  A    between atoms: _404  and  _405
REMARK  171  A    between atoms: _408  and  _410
REMARK  172  A    between atoms: _410  and  _411
REMARK  173  A    between atoms: _413  and  _415
REMARK  174  A    between atoms: _415  and  _416
REMARK  175  A    between atoms: _418  and  _420
REMARK  176  A    between atoms: _420  and  _421
REMARK  177  A    between atoms: _420  and  _423
REMARK  178  A    between atoms: _423  and  _424
REMARK  179  A    between atoms: _427  and  _429
REMARK  180  A    between atoms: _429  and  _430
REMARK  181  A    between atoms: _432  and  _434
REMARK  182  A    between atoms: _434  and  _435
REMARK  183  A    between atoms: _437  and  _439
REMARK  184  A    between atoms: _439  and  _440
REMARK  185  A    between atoms: _439  and  _442
REMARK  186  A    between atoms: _442  and  _443
REMARK  187  A    between atoms: _449  and  _451
REMARK  188  A    between atoms: _451  and  _452
REMARK  189  A    between atoms: _451  and  _454
REMARK  190  A    between atoms: _454  and  _455
REMARK  191  A    between atoms: _458  and  _460
REMARK  192  A    between atoms: _460  and  _461
REMARK  193  A    between atoms: _460  and  _463
REMARK  194  A    between atoms: _466  and  _468
REMARK  195  A    between atoms: _468  and  _469
REMARK  196  A    between atoms: _468  and  _471
REMARK  197  A    between atoms: _471  and  _472
REMARK  198  A    between atoms: _475  and  _477
REMARK  199  A    between atoms: _477  and  _478
REMARK  200  A    between atoms: _477  and  _480
REMARK  201  A    between atoms: _480  and  _481
REMARK  202  A    between atoms: _485  and  _486
REMARK  203  A    between atoms: _491  and  _493
REMARK  204  A    between atoms: _493  and  _494
REMARK  205  A    between atoms: _493  and  _496
REMARK  206  A    between atoms: _496  and  _497
REMARK  207  A    between atoms: _500  and  _502
REMARK  208  A    between atoms: _502  and  _503
REMARK  209  A    between atoms: _502  and  _505
REMARK  210  A    between atoms: _505  and  _506
REMARK  211  A    between atoms: _511  and  _513
REMARK  212  A    between atoms: _513  and  _514
REMARK  213  A    between atoms: _513  and  _516
REMARK  214  A    between atoms: _519  and  _521
REMARK  215  A    between atoms: _521  and  _522
REMARK  216  A    between atoms: _521  and  _524
REMARK  217  A    between atoms: _524  and  _525
REMARK  218  A    between atoms: _528  and  _530
REMARK  219  A    between atoms: _530  and  _531
REMARK  220  A    between atoms: _533  and  _535
REMARK  221  A    between atoms: _535  and  _536
REMARK  222  A    between atoms: _535  and  _538
REMARK  223  A    between atoms: _538  and  _539
REMARK  224  A    between atoms: _539  and  _540
REMARK  225  A    between atoms: _540  and  _541
REMARK  226  A    between atoms: _550  and  _552
REMARK  227  A    between atoms: _552  and  _553
REMARK  228  A    between atoms: _552  and  _555
REMARK  229  A    between atoms: _555  and  _556
REMARK                            x       y       z     vdW  Elec       q    Type
REMARK                         _______ _______ _______ _____ _____    ______ ____
ROOT
ATOM      1  C   ASN A   4      14.405   2.997  15.054  0.00  0.00    +0.241 C 
ATOM      2  N   VAL A   5      14.219   1.880  15.741  0.00  0.00    -0.297 N 
ATOM      3  H   VAL A   5      14.829   1.058  15.554  0.00  0.00    +0.150 HD
ATOM      4  O   ASN A   4      13.749   4.017  15.247  0.00  0.00    -0.273 OA
ENDROOT
BRANCH   2   5
ATOM      5  CA  VAL A   5      13.180   1.781  16.750  0.00  0.00    +0.149 C 
BRANCH   5   6
ATOM      6  C   VAL A   5      13.697   1.330  18.103  0.00  0.00    +0.241 C 
ATOM      7  N   ILE A   6      13.376   2.121  19.125  0.00  0.00    -0.297 N 
ATOM      8  H   ILE A   6      12.837   2.990  18.936  0.00  0.00    +0.150 HD
ATOM      9  O   VAL A   5      14.364   0.294  18.218  0.00  0.00    -0.273 OA
BRANCH   7  10
ATOM     10  CA  ILE A   6      13.751   1.814  20.492  0.00  0.00    +0.149 C 
BRANCH  10  11
ATOM     11  C   ILE A   6      12.518   1.175  21.141  0.00  0.00    +0.241 C 
ATOM     12  N   GLY A   7      12.637  -0.110  21.469  0.00  0.00    -0.295 N 
ATOM     13  H   GLY A   7      13.534  -0.604  21.286  0.00  0.00    +0.150 HD
ATOM     14  O   ILE A   6      11.477   1.828  21.317  0.00  0.00    -0.273 OA
BRANCH  12  15
ATOM     15  CA  GLY A   7      11.534  -0.834  22.078  0.00  0.00    +0.176 C 
BRANCH  15  16
ATOM     16  C   GLY A   7      11.546  -0.801  23.595  0.00  0.00    +0.243 C 
ATOM     17  O   GLY A   7      12.412  -0.173  24.203  0.00  0.00    -0.273 OA
ATOM     18  N   ARG A   8      10.586  -1.487  24.203  0.00  0.00    -0.298 N 
ATOM     19  H   ARG A   8       9.896  -2.007  23.625  0.00  0.00    +0.150 HD
BRANCH  18  20
ATOM     20  CA  ARG A   8      10.469  -1.534  25.655  0.00  0.00    +0.137 C 
BRANCH  20  21
ATOM     21  C   ARG A   8      11.687  -2.081  26.413  0.00  0.00    +0.227 C 
ATOM     22  O   ARG A   8      11.939  -1.665  27.544  0.00  0.00    -0.286 OA
ENDBRANCH  20  21
BRANCH  20  23
ATOM     23  CB  ARG A   8       9.219  -2.324  26.055  0.00  0.00    +0.031 C 
BRANCH  23  24
ATOM     24  CG  ARG A   8       7.916  -1.607  25.702  0.00  0.00    +0.045 C 
BRANCH  24  25
ATOM     25  CD  ARG A   8       6.672  -2.395  26.114  0.00  0.00    +0.174 C 
BRANCH  25  26
ATOM     26  NE  ARG A   8       6.679  -3.736  25.543  0.00  0.00    -0.265 N 
ATOM     27  CZ  ARG A   8       7.013  -4.830  26.222  0.00  0.00    +0.342 C 
ATOM     28  NH2 ARG A   8       7.356  -4.741  27.505  0.00  0.00    -0.292 N 
ATOM     29 HH21 ARG A   8       7.617  -5.597  28.034  0.00  0.00    +0.255 HD
ATOM     30 HH22 ARG A   8       7.363  -3.815  27.978  0.00  0.00    +0.255 HD
ATOM     31  NH1 ARG A   8       7.032  -6.008  25.612  0.00  0.00    -0.292 N 
ATOM     32 HH11 ARG A   8       7.293  -6.864  26.142  0.00  0.00    +0.255 HD
ATOM     33 HH12 ARG A   8       6.786  -6.076  24.604  0.00  0.00    +0.255 HD
ATOM     34  HE  ARG A   8       6.407  -3.844  24.545  0.00  0.00    +0.259 HD
ENDBRANCH  25  26
ENDBRANCH  24  25
ENDBRANCH  23  24
ENDBRANCH  20  23
ENDBRANCH  18  20
ENDBRANCH  15  16
ENDBRANCH  12  15
ENDBRANCH  10  11
BRANCH  10  35
ATOM     35  CB  ILE A   6      14.150   3.093  21.263  0.00  0.00    +0.027 C 
ATOM     36  CG2 ILE A   6      14.596   2.742  22.666  0.00  0.00    +0.002 C 
BRANCH  35  37
ATOM     37  CG1 ILE A   6      15.292   3.802  20.528  0.00  0.00    +0.002 C 
ATOM     38  CD1 ILE A   6      16.576   2.970  20.434  0.00  0.00    +0.000 C 
ENDBRANCH  35  37
ENDBRANCH  10  35
ENDBRANCH   7  10
ENDBRANCH   5   6
BRANCH   5  39
ATOM     39  CB  VAL A   5      12.076   0.795  16.293  0.00  0.00    +0.027 C 
ATOM     40  CG2 VAL A   5      11.077   0.549  17.410  0.00  0.00    +0.002 C 
ATOM     41  CG1 VAL A   5      11.371   1.350  15.066  0.00  0.00    +0.002 C 
ENDBRANCH   5  39
ENDBRANCH   2   5
BRANCH   1  42
ATOM     42  CA  ASN A   4      15.493   2.965  13.996  0.00  0.00    +0.158 C 
BRANCH  42  44
ATOM     43  C   THR A   3      14.129   2.784  12.004  0.00  0.00    +0.243 C 
ATOM     44  N   ASN A   4      14.939   3.511  12.768  0.00  0.00    -0.297 N 
ATOM     45  H   ASN A   4      15.179   4.482  12.483  0.00  0.00    +0.150 HD
ATOM     46  O   THR A   3      13.827   1.616  12.269  0.00  0.00    -0.273 OA
BRANCH  43  47
ATOM     47  CA  THR A   3      13.586   3.462  10.749  0.00  0.00    +0.176 C 
BRANCH  47  49
ATOM     48  C   PRO A   2      13.174   2.819   8.442  0.00  0.00    +0.241 C 
ATOM     49  N   THR A   3      13.242   2.476   9.723  0.00  0.00    -0.295 N 
ATOM     50  H   THR A   3      13.048   1.493  10.001  0.00  0.00    +0.150 HD
ATOM     51  O   PRO A   2      13.420   3.961   8.049  0.00  0.00    -0.273 OA
BRANCH  48  58
ATOM     52  C   THR A   1      14.052  -0.157   8.308  0.00  0.00    +0.244 C 
ATOM     53  O   THR A   1      15.093   0.458   8.102  0.00  0.00    -0.273 OA
ATOM     54  N   PRO A   2      12.857   0.367   8.011  0.00  0.00    -0.272 N 
ATOM     55  CD  PRO A   2      11.525  -0.266   8.015  0.00  0.00    +0.094 C 
ATOM     56  CG  PRO A   2      10.603   0.930   7.871  0.00  0.00    +0.024 C 
ATOM     57  CB  PRO A   2      11.357   1.828   6.951  0.00  0.00    +0.031 C 
ATOM     58  CA  PRO A   2      12.800   1.719   7.449  0.00  0.00    +0.152 C 
BRANCH  52  59
ATOM     59  CA  THR A   1      14.082  -1.566   8.895  0.00  0.00    +0.172 C 
BRANCH  59  60
ATOM     60  N   THR A   1      15.257  -2.247   8.377  0.00  0.00    -0.236 NA
ATOM     61  H   THR A   1      16.191  -2.036   8.782  0.00  0.00    +0.142 HD
ENDBRANCH  59  60
BRANCH  59  62
ATOM     62  CB  THR A   1      14.120  -1.484  10.436  0.00  0.00    +0.135 C 
ATOM     63  CG2 THR A   1      15.414  -0.815  10.901  0.00  0.00    +0.034 C 
BRANCH  62  64
ATOM     64  OG1 THR A   1      12.993  -0.731  10.907  0.00  0.00    -0.383 OA
ATOM     65  HG1 THR A   1      13.026   0.183  10.528  0.00  0.00    +0.210 HD
ENDBRANCH  62  64
ENDBRANCH  59  62
ENDBRANCH  52  59
ENDBRANCH  48  58
ENDBRANCH  47  49
BRANCH  47  66
ATOM     66  CB  THR A   3      12.346   4.306  11.142  0.00  0.00    +0.137 C 
ATOM     67  CG2 THR A   3      11.281   3.429  11.769  0.00  0.00    +0.034 C 
BRANCH  66  68
ATOM     68  OG1 THR A   3      12.722   5.306  12.095  0.00  0.00    -0.382 OA
ATOM     69  HG1 THR A   3      13.409   5.898  11.697  0.00  0.00    +0.210 HD
ENDBRANCH  66  68
ENDBRANCH  47  66
ENDBRANCH  43  47
ENDBRANCH  42  44
BRANCH  42  70
ATOM     70  CB  ASN A   4      16.684   3.792  14.453  0.00  0.00    +0.114 C 
BRANCH  70  71
ATOM     71  CG  ASN A   4      17.771   3.839  13.419  0.00  0.00    +0.222 C 
ATOM     72  OD1 ASN A   4      18.369   2.817  13.085  0.00  0.00    -0.275 OA
ATOM     73  ND2 ASN A   4      18.031   5.026  12.892  0.00  0.00    -0.329 N 
ATOM     74 HD21 ASN A   4      17.499   5.862  13.206  0.00  0.00    +0.145 HD
ATOM     75 HD22 ASN A   4      18.767   5.122  12.164  0.00  0.00    +0.145 HD
ENDBRANCH  70  71
ENDBRANCH  42  70
ENDBRANCH   1  42
TORSDOF 28
REMARK  Name = ../refined-set-2016/1k6p/1k6p_pocket.pdb
REMARK  229 active torsions:
REMARK  status: ('A' for Active; 'I' for Inactive)
REMARK    1  A    between atoms: _1  and  _3
REMARK    2  A    between atoms: _3  and  _4
REMARK    3  A    between atoms: _3  and  _6
REMARK    4  A    between atoms: _6  and  _7
REMARK    5  A    between atoms: _7  and  _8
REMARK    6  A    between atoms: _8  and  _9
REMARK    7  A    between atoms: _18  and  _20
REMARK    8  A    between atoms: _20  and  _21
REMARK    9  A    between atoms: _20  and  _23
REMARK   10  A    between atoms: _23  and  _24
REMARK   11  A    between atoms: _27  and  _29
REMARK   12  A    between atoms: _29  and  _30
REMARK   13  A    between atoms: _29  and  _32
REMARK   14  A    between atoms: _32  and  _33
REMARK   15  A    between atoms: _36  and  _38
REMARK   16  A    between atoms: _38  and  _39
REMARK   17  A    between atoms: _38  and  _41
REMARK   18  A    between atoms: _41  and  _42
REMARK   19  A    between atoms: _45  and  _47
REMARK   20  A    between atoms: _47  and  _48
REMARK   21  A    between atoms: _47  and  _50
REMARK   22  A    between atoms: _50  and  _51
REMARK   23  A    between atoms: _54  and  _56
REMARK   24  A    between atoms: _56  and  _57
REMARK   25  A    between atoms: _56  and  _59
REMARK   26  A    between atoms: _59  and  _60
REMARK   27  A    between atoms: _63  and  _65
REMARK   28  A    between atoms: _65  and  _66
REMARK   29  A    between atoms: _68  and  _70
REMARK   30  A    between atoms: _70  and  _71
REMARK   31  A    between atoms: _74  and  _76
REMARK   32  A    between atoms: _76  and  _77
REMARK   33  A    between atoms: _76  and  _79
REMARK   34  A    between atoms: _79  and  _80
REMARK   35  A    between atoms: _83  and  _85
REMARK   36  A    between atoms: _85  and  _86
REMARK   37  A    between atoms: _85  and  _88
REMARK   38  A    between atoms: _88  and  _89
REMARK   39  A    between atoms: _92  and  _94
REMARK   40  A    between atoms: _94  and  _95
REMARK   41  A    between atoms: _94  and  _97
REMARK   42  A    between atoms: _97  and  _98
REMARK   43  A    between atoms: _101  and  _103
REMARK   44  A    between atoms: _103  and  _104
REMARK   45  A    between atoms: _103  and  _106
REMARK   46  A    between atoms: _109  and  _111
REMARK   47  A    between atoms: _111  and  _112
REMARK   48  A    between atoms: _111  and  _114
REMARK   49  A    between atoms: _114  and  _115
REMARK   50  A    between atoms: _115  and  _116
REMARK   51  A    between atoms: _118  and  _120
REMARK   52  A    between atoms: _120  and  _121
REMARK   53  A    between atoms: _120  and  _123
REMARK   54  A    between atoms: _123  and  _124
REMARK   55  A    between atoms: _127  and  _129
REMARK   56  A    between atoms: _129  and  _130
REMARK   57  A    between atoms: _132  and  _134
REMARK   58  A    between atoms: _134  and  _135
REMARK   59  A    between atoms: _137  and  _139
REMARK   60  A    between atoms: _139  and  _140
REMARK   61  A    between atoms: _139  and  _142
REMARK   62  A    between atoms: _142  and  _143
REMARK   63  A    between atoms: _146  and  _148
REMARK   64  A    between atoms: _148  and  _149
REMARK   65  A    between atoms: _151  and  _153
REMARK   66  A    between atoms: _153  and  _154
REMARK   67  A    between atoms: _156  and  _158
REMARK   68  A    between atoms: _158  and  _159
REMARK   69  A    between atoms: _158  and  _161
REMARK   70  A    between atoms: _161  and  _162
REMARK   71  A    between atoms: _168  and  _170
REMARK   72  A    between atoms: _170  and  _171
REMARK   73  A    between atoms: _170  and  _173
REMARK   74  A    between atoms: _173  and  _174
REMARK   75  A    between atoms: _177  and  _179
REMARK   76  A    between atoms: _179  and  _180
REMARK   77  A    between atoms: _179  and  _182
REMARK   78  A    between atoms: _185  and  _187
REMARK   79  A    between atoms: _187  and  _188
REMARK   80  A    between atoms: _187  and  _190
REMARK   81  A    between atoms: _190  and  _191
REMARK   82  A    between atoms: _194  and  _196
REMARK   83  A    between atoms: _196  and  _197
REMARK   84  A    between atoms: _196  and  _199
REMARK   85  A    between atoms: _199  and  _200
REMARK   86  A    between atoms: _204  and  _205
REMARK   87  A    between atoms: _210  and  _212
REMARK   88  A    between atoms: _212  and  _213
REMARK   89  A    between atoms: _212  and  _215
REMARK   90  A    between atoms: _215  and  _216
REMARK   91  A    between atoms: _219  and  _221
REMARK   92  A    between atoms: _221  and  _222
REMARK   93  A    between atoms: _221  and  _224
REMARK   94  A    between atoms: _224  and  _225
REMARK   95  A    between atoms: _230  and  _232
REMARK   96  A    between atoms: _232  and  _233
REMARK   97  A    between atoms: _232  and  _235
REMARK   98  A    between atoms: _238  and  _240
REMARK   99  A    between atoms: _240  and  _241
REMARK  100  A    between atoms: _240  and  _243
REMARK  101  A    between atoms: _243  and  _244
REMARK  102  A    between atoms: _247  and  _249
REMARK  103  A    between atoms: _249  and  _250
REMARK  104  A    between atoms: _252  and  _254
REMARK  105  A    between atoms: _254  and  _255
REMARK  106  A    between atoms: _254  and  _257
REMARK  107  A    between atoms: _257  and  _258
REMARK  108  A    between atoms: _258  and  _259
REMARK  109  A    between atoms: _259  and  _260
REMARK  110  A    between atoms: _269  and  _271
REMARK  111  A    between atoms: _271  and  _272
REMARK  112  A    between atoms: _271  and  _274
REMARK  113  A    between atoms: _274  and  _275
REMARK  114  A    between atoms: _275  and  _276
REMARK  115  A    between atoms: _276  and  _277
REMARK  116  A    between atoms: _286  and  _288
REMARK  117  A    between atoms: _288  and  _289
REMARK  118  A    between atoms: _288  and  _291
REMARK  119  A    between atoms: _291  and  _292
REMARK  120  A    between atoms: _295  and  _297
REMARK  121  A    between atoms: _297  and  _298
REMARK  122  A    between atoms: _297  and  _300
REMARK  123  A    between atoms: _300  and  _301
REMARK  124  A    between atoms: _304  and  _306
REMARK  125  A    between atoms: _306  and  _307
REMARK  126  A    between atoms: _306  and  _309
REMARK  127  A    between atoms: _309  and  _310
REMARK  128  A    between atoms: _313  and  _315
REMARK  129  A    between atoms: _315  and  _316
REMARK  130  A    between atoms: _315  and  _318
REMARK  131  A    between atoms: _318  and  _319
REMARK  132  A    between atoms: _322  and  _324
REMARK  133  A    between atoms: _324  and  _325
REMARK  134  A    between atoms: _327  and  _329
REMARK  135  A    between atoms: _329  and  _330
REMARK  136  A    between atoms: _333  and  _335
REMARK  137  A    between atoms: _335  and  _336
REMARK  138  A    between atoms: _335  and  _338
REMARK  139  A    between atoms: _338  and  _339
REMARK  140  A    between atoms: _342  and  _344
REMARK  141  A    between atoms: _344  and  _345
REMARK  142  A    between atoms: _344  and  _347
REMARK  143  A    between atoms: _347  and  _348
REMARK  144  A    between atoms: _351  and  _353
REMARK  145  A    between atoms: _353  and  _354
REMARK  146  A    between atoms: _353  and  _356
REMARK  147  A    between atoms: _356  and  _357
REMARK  148  A    between atoms: _360  and  _362
REMARK  149  A    between atoms: _362  and  _363
REMARK  150  A    between atoms: _362  and  _365
REMARK  151  A    between atoms: _368  and  _370
REMARK  152  A    between atoms: _370  and  _371
REMARK  153  A    between atoms: _370  and  _373
REMARK  154  A    between atoms: _373  and  _374
REMARK  155  A    between atoms: _377  and  _379
REMARK  156  A    between atoms: _379  and  _380
REMARK  157  A    between atoms: _379  and  _382
REMARK  158  A    between atoms: _382  and  _383
REMARK  159  A    between atoms: _383  and  _384
REMARK  160  A    between atoms: _384  and  _385
REMARK  161  A    between atoms: _385  and  _386
REMARK  162  A    between atoms: _390  and  _392
REMARK  163  A    between atoms: _392  and  _393
REMARK  164  A    between atoms: _392  and  _395
REMARK  165  A    between atoms: _395  and  _396
REMARK  166  A    between atoms: _396  and  _397
REMARK  167  A    between atoms: _399  and  _401
REMARK  168  A    between atoms: _401  and  _402
REMARK  169  A    between atoms: _401  and  _404
REMARK  170  A    between atoms: _404  and  _405
REMARK  171  A    between atoms: _408  and  _410
REMARK  172  A    between atoms: _410  and  _411
REMARK  173  A    between atoms: _413  and  _415
REMARK  174  A    between atoms: _415  and  _416
REMARK  175  A    between atoms: _418  and  _420
REMARK  176  A    between atoms: _420  and  _421
REMARK  177  A    between atoms: _420  and  _423
REMARK  178  A    between atoms: _423  and  _424
REMARK  179  A    between atoms: _427  and  _429
REMARK  180  A    between atoms: _429  and  _430
REMARK  181  A    between atoms: _432  and  _434
REMARK  182  A    between atoms: _434  and  _435
REMARK  183  A    between atoms: _437  and  _439
REMARK  184  A    between atoms: _439  and  _440
REMARK  185  A    between atoms: _439  and  _442
REMARK  186  A    between atoms: _442  and  _443
REMARK  187  A    between atoms: _449  and  _451
REMARK  188  A    between atoms: _451  and  _452
REMARK  189  A    between atoms: _451  and  _454
REMARK  190  A    between atoms: _454  and  _455
REMARK  191  A    between atoms: _458  and  _460
REMARK  192  A    between atoms: _460  and  _461
REMARK  193  A    between atoms: _460  and  _463
REMARK  194  A    between atoms: _466  and  _468
REMARK  195  A    between atoms: _468  and  _469
REMARK  196  A    between atoms: _468  and  _471
REMARK  197  A    between atoms: _471  and  _472
REMARK  198  A    between atoms: _475  and  _477
REMARK  199  A    between atoms: _477  and  _478
REMARK  200  A    between atoms: _477  and  _480
REMARK  201  A    between atoms: _480  and  _481
REMARK  202  A    between atoms: _485  and  _486
REMARK  203  A    between atoms: _491  and  _493
REMARK  204  A    between atoms: _493  and  _494
REMARK  205  A    between atoms: _493  and  _496
REMARK  206  A    between atoms: _496  and  _497
REMARK  207  A    between atoms: _500  and  _502
REMARK  208  A    between atoms: _502  and  _503
REMARK  209  A    between atoms: _502  and  _505
REMARK  210  A    between atoms: _505  and  _506
REMARK  211  A    between atoms: _511  and  _513
REMARK  212  A    between atoms: _513  and  _514
REMARK  213  A    between atoms: _513  and  _516
REMARK  214  A    between atoms: _519  and  _521
REMARK  215  A    between atoms: _521  and  _522
REMARK  216  A    between atoms: _521  and  _524
REMARK  217  A    between atoms: _524  and  _525
REMARK  218  A    between atoms: _528  and  _530
REMARK  219  A    between atoms: _530  and  _531
REMARK  220  A    between atoms: _533  and  _535
REMARK  221  A    between atoms: _535  and  _536
REMARK  222  A    between atoms: _535  and  _538
REMARK  223  A    between atoms: _538  and  _539
REMARK  224  A    between atoms: _539  and  _540
REMARK  225  A    between atoms: _540  and  _541
REMARK  226  A    between atoms: _550  and  _552
REMARK  227  A    between atoms: _552  and  _553
REMARK  228  A    between atoms: _552  and  _555
REMARK  229  A    between atoms: _555  and  _556
REMARK                            x       y       z     vdW  Elec       q    Type
REMARK                         _______ _______ _______ _____ _____    ______ ____
ROOT
ATOM      1  NE  ARG A   1       3.677  -7.698  23.106  0.00  0.00    -0.265 N 
ATOM      2  HE  ARG A   1       4.539  -8.089  23.536  0.00  0.00    +0.259 HD
ATOM      3  CZ  ARG A   1       3.496  -7.883  21.799  0.00  0.00    +0.342 C 
ATOM      4  NH2 ARG A   1       2.415  -7.400  21.195  0.00  0.00    -0.292 N 
ATOM      5 HH21 ARG A   1       1.704  -6.874  21.743  0.00  0.00    +0.255 HD
ATOM      6 HH22 ARG A   1       2.280  -7.548  20.174  0.00  0.00    +0.255 HD
ATOM      7  NH1 ARG A   1       4.396  -8.558  21.094  0.00  0.00    -0.292 N 
ATOM      8 HH11 ARG A   1       5.242  -8.942  21.562  0.00  0.00    +0.255 HD
ATOM      9 HH12 ARG A   1       4.255  -8.703  20.074  0.00  0.00    +0.255 HD
ENDROOT
BRANCH   1  10
ATOM     10  CD  ARG A   1       2.746  -6.983  23.975  0.00  0.00    +0.174 C 
BRANCH  10  11
ATOM     11  CG  ARG A   1       3.419  -6.477  25.237  0.00  0.00    +0.045 C 
BRANCH  11  12
ATOM     12  CB  ARG A   1       2.475  -5.606  26.041  0.00  0.00    +0.029 C 
BRANCH  12  13
ATOM     13  CA  ARG A   1       3.170  -4.580  26.946  0.00  0.00    +0.133 C 
BRANCH  13  14
ATOM     14  N   ARG A   1       3.812  -5.239  28.073  0.00  0.00    -0.239 NA
ATOM     15  H   ARG A   1       3.830  -6.278  28.108  0.00  0.00    +0.142 HD
ENDBRANCH  13  14
BRANCH  13  16
ATOM     16  C   ARG A   1       2.130  -3.619  27.512  0.00  0.00    +0.224 C 
ATOM     17  O   ARG A   1       1.373  -3.978  28.412  0.00  0.00    -0.287 OA
ENDBRANCH  13  16
ENDBRANCH  12  13
ENDBRANCH  11  12
ENDBRANCH  10  11
ENDBRANCH   1  10
TORSDOF 6
REMARK  Name = ../refined-set-2016/1k6p/1k6p_pocket.pdb
REMARK  229 active torsions:
REMARK  status: ('A' for Active; 'I' for Inactive)
REMARK    1  A    between atoms: _1  and  _3
REMARK    2  A    between atoms: _3  and  _4
REMARK    3  A    between atoms: _3  and  _6
REMARK    4  A    between atoms: _6  and  _7
REMARK    5  A    between atoms: _7  and  _8
REMARK    6  A    between atoms: _8  and  _9
REMARK    7  A    between atoms: _18  and  _20
REMARK    8  A    between atoms: _20  and  _21
REMARK    9  A    between atoms: _20  and  _23
REMARK   10  A    between atoms: _23  and  _24
REMARK   11  A    between atoms: _27  and  _29
REMARK   12  A    between atoms: _29  and  _30
REMARK   13  A    between atoms: _29  and  _32
REMARK   14  A    between atoms: _32  and  _33
REMARK   15  A    between atoms: _36  and  _38
REMARK   16  A    between atoms: _38  and  _39
REMARK   17  A    between atoms: _38  and  _41
REMARK   18  A    between atoms: _41  and  _42
REMARK   19  A    between atoms: _45  and  _47
REMARK   20  A    between atoms: _47  and  _48
REMARK   21  A    between atoms: _47  and  _50
REMARK   22  A    between atoms: _50  and  _51
REMARK   23  A    between atoms: _54  and  _56
REMARK   24  A    between atoms: _56  and  _57
REMARK   25  A    between atoms: _56  and  _59
REMARK   26  A    between atoms: _59  and  _60
REMARK   27  A    between atoms: _63  and  _65
REMARK   28  A    between atoms: _65  and  _66
REMARK   29  A    between atoms: _68  and  _70
REMARK   30  A    between atoms: _70  and  _71
REMARK   31  A    between atoms: _74  and  _76
REMARK   32  A    between atoms: _76  and  _77
REMARK   33  A    between atoms: _76  and  _79
REMARK   34  A    between atoms: _79  and  _80
REMARK   35  A    between atoms: _83  and  _85
REMARK   36  A    between atoms: _85  and  _86
REMARK   37  A    between atoms: _85  and  _88
REMARK   38  A    between atoms: _88  and  _89
REMARK   39  A    between atoms: _92  and  _94
REMARK   40  A    between atoms: _94  and  _95
REMARK   41  A    between atoms: _94  and  _97
REMARK   42  A    between atoms: _97  and  _98
REMARK   43  A    between atoms: _101  and  _103
REMARK   44  A    between atoms: _103  and  _104
REMARK   45  A    between atoms: _103  and  _106
REMARK   46  A    between atoms: _109  and  _111
REMARK   47  A    between atoms: _111  and  _112
REMARK   48  A    between atoms: _111  and  _114
REMARK   49  A    between atoms: _114  and  _115
REMARK   50  A    between atoms: _115  and  _116
REMARK   51  A    between atoms: _118  and  _120
REMARK   52  A    between atoms: _120  and  _121
REMARK   53  A    between atoms: _120  and  _123
REMARK   54  A    between atoms: _123  and  _124
REMARK   55  A    between atoms: _127  and  _129
REMARK   56  A    between atoms: _129  and  _130
REMARK   57  A    between atoms: _132  and  _134
REMARK   58  A    between atoms: _134  and  _135
REMARK   59  A    between atoms: _137  and  _139
REMARK   60  A    between atoms: _139  and  _140
REMARK   61  A    between atoms: _139  and  _142
REMARK   62  A    between atoms: _142  and  _143
REMARK   63  A    between atoms: _146  and  _148
REMARK   64  A    between atoms: _148  and  _149
REMARK   65  A    between atoms: _151  and  _153
REMARK   66  A    between atoms: _153  and  _154
REMARK   67  A    between atoms: _156  and  _158
REMARK   68  A    between atoms: _158  and  _159
REMARK   69  A    between atoms: _158  and  _161
REMARK   70  A    between atoms: _161  and  _162
REMARK   71  A    between atoms: _168  and  _170
REMARK   72  A    between atoms: _170  and  _171
REMARK   73  A    between atoms: _170  and  _173
REMARK   74  A    between atoms: _173  and  _174
REMARK   75  A    between atoms: _177  and  _179
REMARK   76  A    between atoms: _179  and  _180
REMARK   77  A    between atoms: _179  and  _182
REMARK   78  A    between atoms: _185  and  _187
REMARK   79  A    between atoms: _187  and  _188
REMARK   80  A    between atoms: _187  and  _190
REMARK   81  A    between atoms: _190  and  _191
REMARK   82  A    between atoms: _194  and  _196
REMARK   83  A    between atoms: _196  and  _197
REMARK   84  A    between atoms: _196  and  _199
REMARK   85  A    between atoms: _199  and  _200
REMARK   86  A    between atoms: _204  and  _205
REMARK   87  A    between atoms: _210  and  _212
REMARK   88  A    between atoms: _212  and  _213
REMARK   89  A    between atoms: _212  and  _215
REMARK   90  A    between atoms: _215  and  _216
REMARK   91  A    between atoms: _219  and  _221
REMARK   92  A    between atoms: _221  and  _222
REMARK   93  A    between atoms: _221  and  _224
REMARK   94  A    between atoms: _224  and  _225
REMARK   95  A    between atoms: _230  and  _232
REMARK   96  A    between atoms: _232  and  _233
REMARK   97  A    between atoms: _232  and  _235
REMARK   98  A    between atoms: _238  and  _240
REMARK   99  A    between atoms: _240  and  _241
REMARK  100  A    between atoms: _240  and  _243
REMARK  101  A    between atoms: _243  and  _244
REMARK  102  A    between atoms: _247  and  _249
REMARK  103  A    between atoms: _249  and  _250
REMARK  104  A    between atoms: _252  and  _254
REMARK  105  A    between atoms: _254  and  _255
REMARK  106  A    between atoms: _254  and  _257
REMARK  107  A    between atoms: _257  and  _258
REMARK  108  A    between atoms: _258  and  _259
REMARK  109  A    between atoms: _259  and  _260
REMARK  110  A    between atoms: _269  and  _271
REMARK  111  A    between atoms: _271  and  _272
REMARK  112  A    between atoms: _271  and  _274
REMARK  113  A    between atoms: _274  and  _275
REMARK  114  A    between atoms: _275  and  _276
REMARK  115  A    between atoms: _276  and  _277
REMARK  116  A    between atoms: _286  and  _288
REMARK  117  A    between atoms: _288  and  _289
REMARK  118  A    between atoms: _288  and  _291
REMARK  119  A    between atoms: _291  and  _292
REMARK  120  A    between atoms: _295  and  _297
REMARK  121  A    between atoms: _297  and  _298
REMARK  122  A    between atoms: _297  and  _300
REMARK  123  A    between atoms: _300  and  _301
REMARK  124  A    between atoms: _304  and  _306
REMARK  125  A    between atoms: _306  and  _307
REMARK  126  A    between atoms: _306  and  _309
REMARK  127  A    between atoms: _309  and  _310
REMARK  128  A    between atoms: _313  and  _315
REMARK  129  A    between atoms: _315  and  _316
REMARK  130  A    between atoms: _315  and  _318
REMARK  131  A    between atoms: _318  and  _319
REMARK  132  A    between atoms: _322  and  _324
REMARK  133  A    between atoms: _324  and  _325
REMARK  134  A    between atoms: _327  and  _329
REMARK  135  A    between atoms: _329  and  _330
REMARK  136  A    between atoms: _333  and  _335
REMARK  137  A    between atoms: _335  and  _336
REMARK  138  A    between atoms: _335  and  _338
REMARK  139  A    between atoms: _338  and  _339
REMARK  140  A    between atoms: _342  and  _344
REMARK  141  A    between atoms: _344  and  _345
REMARK  142  A    between atoms: _344  and  _347
REMARK  143  A    between atoms: _347  and  _348
REMARK  144  A    between atoms: _351  and  _353
REMARK  145  A    between atoms: _353  and  _354
REMARK  146  A    between atoms: _353  and  _356
REMARK  147  A    between atoms: _356  and  _357
REMARK  148  A    between atoms: _360  and  _362
REMARK  149  A    between atoms: _362  and  _363
REMARK  150  A    between atoms: _362  and  _365
REMARK  151  A    between atoms: _368  and  _370
REMARK  152  A    between atoms: _370  and  _371
REMARK  153  A    between atoms: _370  and  _373
REMARK  154  A    between atoms: _373  and  _374
REMARK  155  A    between atoms: _377  and  _379
REMARK  156  A    between atoms: _379  and  _380
REMARK  157  A    between atoms: _379  and  _382
REMARK  158  A    between atoms: _382  and  _383
REMARK  159  A    between atoms: _383  and  _384
REMARK  160  A    between atoms: _384  and  _385
REMARK  161  A    between atoms: _385  and  _386
REMARK  162  A    between atoms: _390  and  _392
REMARK  163  A    between atoms: _392  and  _393
REMARK  164  A    between atoms: _392  and  _395
REMARK  165  A    between atoms: _395  and  _396
REMARK  166  A    between atoms: _396  and  _397
REMARK  167  A    between atoms: _399  and  _401
REMARK  168  A    between atoms: _401  and  _402
REMARK  169  A    between atoms: _401  and  _404
REMARK  170  A    between atoms: _404  and  _405
REMARK  171  A    between atoms: _408  and  _410
REMARK  172  A    between atoms: _410  and  _411
REMARK  173  A    between atoms: _413  and  _415
REMARK  174  A    between atoms: _415  and  _416
REMARK  175  A    between atoms: _418  and  _420
REMARK  176  A    between atoms: _420  and  _421
REMARK  177  A    between atoms: _420  and  _423
REMARK  178  A    between atoms: _423  and  _424
REMARK  179  A    between atoms: _427  and  _429
REMARK  180  A    between atoms: _429  and  _430
REMARK  181  A    between atoms: _432  and  _434
REMARK  182  A    between atoms: _434  and  _435
REMARK  183  A    between atoms: _437  and  _439
REMARK  184  A    between atoms: _439  and  _440
REMARK  185  A    between atoms: _439  and  _442
REMARK  186  A    between atoms: _442  and  _443
REMARK  187  A    between atoms: _449  and  _451
REMARK  188  A    between atoms: _451  and  _452
REMARK  189  A    between atoms: _451  and  _454
REMARK  190  A    between atoms: _454  and  _455
REMARK  191  A    between atoms: _458  and  _460
REMARK  192  A    between atoms: _460  and  _461
REMARK  193  A    between atoms: _460  and  _463
REMARK  194  A    between atoms: _466  and  _468
REMARK  195  A    between atoms: _468  and  _469
REMARK  196  A    between atoms: _468  and  _471
REMARK  197  A    between atoms: _471  and  _472
REMARK  198  A    between atoms: _475  and  _477
REMARK  199  A    between atoms: _477  and  _478
REMARK  200  A    between atoms: _477  and  _480
REMARK  201  A    between atoms: _480  and  _481
REMARK  202  A    between atoms: _485  and  _486
REMARK  203  A    between atoms: _491  and  _493
REMARK  204  A    between atoms: _493  and  _494
REMARK  205  A    between atoms: _493  and  _496
REMARK  206  A    between atoms: _496  and  _497
REMARK  207  A    between atoms: _500  and  _502
REMARK  208  A    between atoms: _502  and  _503
REMARK  209  A    between atoms: _502  and  _505
REMARK  210  A    between atoms: _505  and  _506
REMARK  211  A    between atoms: _511  and  _513
REMARK  212  A    between atoms: _513  and  _514
REMARK  213  A    between atoms: _513  and  _516
REMARK  214  A    between atoms: _519  and  _521
REMARK  215  A    between atoms: _521  and  _522
REMARK  216  A    between atoms: _521  and  _524
REMARK  217  A    between atoms: _524  and  _525
REMARK  218  A    between atoms: _528  and  _530
REMARK  219  A    between atoms: _530  and  _531
REMARK  220  A    between atoms: _533  and  _535
REMARK  221  A    between atoms: _535  and  _536
REMARK  222  A    between atoms: _535  and  _538
REMARK  223  A    between atoms: _538  and  _539
REMARK  224  A    between atoms: _539  and  _540
REMARK  225  A    between atoms: _540  and  _541
REMARK  226  A    between atoms: _550  and  _552
REMARK  227  A    between atoms: _552  and  _553
REMARK  228  A    between atoms: _552  and  _555
REMARK  229  A    between atoms: _555  and  _556
REMARK                            x       y       z     vdW  Elec       q    Type
REMARK                         _______ _______ _______ _____ _____    ______ ____
ROOT
ATOM      1  C   ALA A   6       1.688   5.220  14.767  0.00  0.00    +0.241 C 
ATOM      2  O   ALA A   6       1.153   5.882  15.665  0.00  0.00    -0.273 OA
ATOM      3  N   ASP A   7       1.737   5.633  13.503  0.00  0.00    -0.297 N 
ATOM      4  H   ASP A   7       2.214   5.047  12.788  0.00  0.00    +0.150 HD
ENDROOT
BRANCH   1   5
ATOM      5  CA  ALA A   6       2.344   3.870  15.079  0.00  0.00    +0.149 C 
ATOM      6  CB  ALA A   6       1.279   2.842  15.479  0.00  0.00    +0.031 C 
BRANCH   5   8
ATOM      7  C   GLY A   5       4.619   4.111  15.884  0.00  0.00    +0.243 C 
ATOM      8  N   ALA A   6       3.322   4.014  16.150  0.00  0.00    -0.297 N 
ATOM      9  H   ALA A   6       2.999   4.041  17.138  0.00  0.00    +0.150 HD
ATOM     10  O   GLY A   5       5.063   4.082  14.733  0.00  0.00    -0.273 OA
BRANCH   7  11
ATOM     11  CA  GLY A   5       5.547   4.261  17.080  0.00  0.00    +0.176 C 
BRANCH  11  13
ATOM     12  C   THR A   4       4.479   5.550  18.832  0.00  0.00    +0.243 C 
ATOM     13  N   GLY A   5       4.837   4.364  18.343  0.00  0.00    -0.295 N 
ATOM     14  H   GLY A   5       4.605   3.500  18.873  0.00  0.00    +0.150 HD
ATOM     15  O   THR A   4       4.724   6.609  18.261  0.00  0.00    -0.273 OA
BRANCH  12  16
ATOM     16  CA  THR A   4       3.739   5.560  20.163  0.00  0.00    +0.176 C 
BRANCH  16  18
ATOM     17  C   ASP A   3       2.210   3.677  19.919  0.00  0.00    +0.241 C 
ATOM     18  N   THR A   4       3.212   4.259  20.571  0.00  0.00    -0.295 N 
ATOM     19  H   THR A   4       3.631   3.777  21.392  0.00  0.00    +0.150 HD
ATOM     20  O   ASP A   3       1.689   4.171  18.917  0.00  0.00    -0.273 OA
BRANCH  17  21
ATOM     21  CA  ASP A   3       1.744   2.321  20.455  0.00  0.00    +0.160 C 
BRANCH  21  24
ATOM     22  C   LEU A   2       0.591   1.907  22.553  0.00  0.00    +0.241 C 
ATOM     23  O   LEU A   2       1.617   1.520  23.111  0.00  0.00    -0.273 OA
ATOM     24  N   ASP A   3       0.572   2.363  21.309  0.00  0.00    -0.297 N 
ATOM     25  H   ASP A   3      -0.311   2.764  20.933  0.00  0.00    +0.150 HD
BRANCH  22  26
ATOM     26  CA  LEU A   2      -0.759   1.892  23.270  0.00  0.00    +0.149 C 
BRANCH  26  28
ATOM     27  C   LEU A   1      -1.536  -0.256  22.400  0.00  0.00    +0.238 C 
ATOM     28  N   LEU A   2      -1.070   0.467  23.421  0.00  0.00    -0.297 N 
ATOM     29  H   LEU A   2      -0.924   0.010  24.344  0.00  0.00    +0.150 HD
ATOM     30  O   LEU A   1      -1.788   0.232  21.299  0.00  0.00    -0.274 OA
BRANCH  27  31
ATOM     31  CA  LEU A   1      -1.795  -1.744  22.659  0.00  0.00    +0.145 C 
BRANCH  31  32
ATOM     32  N   LEU A   1      -3.148  -2.090  22.260  0.00  0.00    -0.238 NA
ATOM     33  H   LEU A   1      -3.360  -2.171  21.245  0.00  0.00    +0.142 HD
ENDBRANCH  31  32
BRANCH  31  34
ATOM     34  CB  LEU A   1      -0.836  -2.631  21.853  0.00  0.00    +0.026 C 
BRANCH  34  35
ATOM     35  CG  LEU A   1       0.692  -2.689  21.962  0.00  0.00    +0.002 C 
ATOM     36  CD2 LEU A   1       1.117  -2.832  23.411  0.00  0.00    +0.000 C 
ATOM     37  CD1 LEU A   1       1.294  -1.463  21.308  0.00  0.00    +0.000 C 
ENDBRANCH  34  35
ENDBRANCH  31  34
ENDBRANCH  27  31
ENDBRANCH  26  28
BRANCH  26  38
ATOM     38  CB  LEU A   2      -0.688   2.569  24.639  0.00  0.00    +0.029 C 
BRANCH  38  39
ATOM     39  CG  LEU A   2      -2.004   2.474  25.429  0.00  0.00    +0.002 C 
ATOM     40  CD2 LEU A   2      -1.881   3.254  26.725  0.00  0.00    +0.000 C 
ATOM     41  CD1 LEU A   2      -3.165   3.014  24.591  0.00  0.00    +0.000 C 
ENDBRANCH  38  39
ENDBRANCH  26  38
ENDBRANCH  22  26
ENDBRANCH  21  24
BRANCH  21  42
ATOM     42  CB  ASP A   3       1.394   1.354  19.308  0.00  0.00    +0.143 C 
BRANCH  42  43
ATOM     43  CG  ASP A   3       2.560   1.053  18.396  0.00  0.00    +0.367 C 
ATOM     44  OD2 ASP A   3       3.654   1.612  18.590  0.00  0.00    -0.246 OA
ATOM     45  OD1 ASP A   3       2.361   0.242  17.471  0.00  0.00    -0.246 OA
ENDBRANCH  42  43
ENDBRANCH  21  42
ENDBRANCH  17  21
ENDBRANCH  16  18
BRANCH  16  46
ATOM     46  CB  THR A   4       4.700   6.139  21.213  0.00  0.00    +0.137 C 
ATOM     47  CG2 THR A   4       3.988   6.329  22.560  0.00  0.00    +0.034 C 
BRANCH  46  48
ATOM     48  OG1 THR A   4       5.808   5.252  21.374  0.00  0.00    -0.382 OA
ATOM     49  HG1 THR A   4       6.279   5.154  20.509  0.00  0.00    +0.210 HD
ENDBRANCH  46  48
ENDBRANCH  16  46
ENDBRANCH  12  16
ENDBRANCH  11  13
ENDBRANCH   7  11
ENDBRANCH   5   8
ENDBRANCH   1   5
BRANCH   3  50
ATOM     50  CA  ASP A   7       1.128   6.899  13.109  0.00  0.00    +0.160 C 
BRANCH  50  51
ATOM     51  C   ASP A   7      -0.384   6.821  13.217  0.00  0.00    +0.241 C 
ATOM     52  O   ASP A   7      -1.032   7.772  13.644  0.00  0.00    -0.273 OA
ATOM     53  N   ASP A   8      -0.937   5.678  12.833  0.00  0.00    -0.297 N 
ATOM     54  H   ASP A   8      -0.325   4.901  12.512  0.00  0.00    +0.150 HD
BRANCH  53  55
ATOM     55  CA  ASP A   8      -2.382   5.484  12.850  0.00  0.00    +0.160 C 
BRANCH  55  56
ATOM     56  C   ASP A   8      -2.824   4.312  13.715  0.00  0.00    +0.241 C 
ATOM     57  O   ASP A   8      -2.004   3.515  14.176  0.00  0.00    -0.273 OA
ATOM     58  N   THR A   9      -4.134   4.228  13.920  0.00  0.00    -0.295 N 
ATOM     59  H   THR A   9      -4.746   4.953  13.493  0.00  0.00    +0.150 HD
BRANCH  58  60
ATOM     60  CA  THR A   9      -4.761   3.177  14.710  0.00  0.00    +0.176 C 
BRANCH  60  61
ATOM     61  C   THR A   9      -5.294   2.085  13.778  0.00  0.00    +0.243 C 
ATOM     62  N   VAL A  10      -4.969   0.835  14.096  0.00  0.00    -0.297 N 
ATOM     63  H   VAL A  10      -4.388   0.665  14.942  0.00  0.00    +0.150 HD
ATOM     64  O   THR A   9      -5.981   2.374  12.796  0.00  0.00    -0.273 OA
BRANCH  62  65
ATOM     65  CA  VAL A  10      -5.402  -0.307  13.294  0.00  0.00    +0.149 C 
BRANCH  65  66
ATOM     66  C   VAL A  10      -5.940  -1.421  14.184  0.00  0.00    +0.241 C 
ATOM     67  O   VAL A  10      -5.270  -1.853  15.119  0.00  0.00    -0.273 OA
ATOM     68  N   LEU A  11      -7.151  -1.883  13.889  0.00  0.00    -0.298 N 
ATOM     69  H   LEU A  11      -7.672  -1.469  13.090  0.00  0.00    +0.150 HD
BRANCH  68  70
ATOM     70  CA  LEU A  11      -7.766  -2.958  14.661  0.00  0.00    +0.137 C 
BRANCH  70  71
ATOM     71  C   LEU A  11      -7.864  -4.240  13.837  0.00  0.00    +0.227 C 
ATOM     72  O   LEU A  11      -7.843  -4.202  12.611  0.00  0.00    -0.286 OA
ENDBRANCH  70  71
BRANCH  70  73
ATOM     73  CB  LEU A  11      -9.168  -2.547  15.104  0.00  0.00    +0.028 C 
BRANCH  73  74
ATOM     74  CG  LEU A  11      -9.309  -1.219  15.841  0.00  0.00    +0.002 C 
ATOM     75  CD2 LEU A  11      -8.432  -1.220  17.081  0.00  0.00    +0.000 C 
ATOM     76  CD1 LEU A  11     -10.767  -1.005  16.213  0.00  0.00    +0.000 C 
ENDBRANCH  73  74
ENDBRANCH  70  73
ENDBRANCH  68  70
ENDBRANCH  65  66
BRANCH  65  77
ATOM     77  CB  VAL A  10      -4.235  -0.889  12.459  0.00  0.00    +0.027 C 
ATOM     78  CG2 VAL A  10      -3.593   0.199  11.631  0.00  0.00    +0.002 C 
ATOM     79  CG1 VAL A  10      -4.743  -2.015  11.563  0.00  0.00    +0.002 C 
ENDBRANCH  65  77
ENDBRANCH  62  65
ENDBRANCH  60  61
BRANCH  60  80
ATOM     80  CB  THR A   9      -5.916   3.764  15.546  0.00  0.00    +0.137 C 
ATOM     81  CG2 THR A   9      -6.638   2.677  16.343  0.00  0.00    +0.034 C 
BRANCH  80  82
ATOM     82  OG1 THR A   9      -5.383   4.743  16.442  0.00  0.00    -0.382 OA
ATOM     83  HG1 THR A   9      -4.945   5.462  15.921  0.00  0.00    +0.210 HD
ENDBRANCH  80  82
ENDBRANCH  60  80
ENDBRANCH  58  60
ENDBRANCH  55  56
BRANCH  55  84
ATOM     84  CB  ASP A   8      -2.885   5.268  11.419  0.00  0.00    +0.143 C 
BRANCH  84  85
ATOM     85  CG  ASP A   8      -2.349   6.306  10.458  0.00  0.00    +0.367 C 
ATOM     86  OD2 ASP A   8      -2.516   7.506  10.748  0.00  0.00    -0.246 OA
ATOM     87  OD1 ASP A   8      -1.758   5.924   9.423  0.00  0.00    -0.246 OA
ENDBRANCH  84  85
ENDBRANCH  55  84
ENDBRANCH  53  55
ENDBRANCH  50  51
BRANCH  50  88
ATOM     88  CB  ASP A   7       1.482   7.264  11.664  0.00  0.00    +0.143 C 
BRANCH  88  89
ATOM     89  CG  ASP A   7       2.954   7.541  11.475  0.00  0.00    +0.367 C 
ATOM     90  OD2 ASP A   7       3.580   8.103  12.399  0.00  0.00    -0.246 OA
ATOM     91  OD1 ASP A   7       3.476   7.212  10.391  0.00  0.00    -0.246 OA
ENDBRANCH  88  89
ENDBRANCH  50  88
ENDBRANCH   3  50
TORSDOF 39
REMARK  Name = ../refined-set-2016/1k6p/1k6p_pocket.pdb
REMARK  229 active torsions:
REMARK  status: ('A' for Active; 'I' for Inactive)
REMARK    1  A    between atoms: _1  and  _3
REMARK    2  A    between atoms: _3  and  _4
REMARK    3  A    between atoms: _3  and  _6
REMARK    4  A    between atoms: _6  and  _7
REMARK    5  A    between atoms: _7  and  _8
REMARK    6  A    between atoms: _8  and  _9
REMARK    7  A    between atoms: _18  and  _20
REMARK    8  A    between atoms: _20  and  _21
REMARK    9  A    between atoms: _20  and  _23
REMARK   10  A    between atoms: _23  and  _24
REMARK   11  A    between atoms: _27  and  _29
REMARK   12  A    between atoms: _29  and  _30
REMARK   13  A    between atoms: _29  and  _32
REMARK   14  A    between atoms: _32  and  _33
REMARK   15  A    between atoms: _36  and  _38
REMARK   16  A    between atoms: _38  and  _39
REMARK   17  A    between atoms: _38  and  _41
REMARK   18  A    between atoms: _41  and  _42
REMARK   19  A    between atoms: _45  and  _47
REMARK   20  A    between atoms: _47  and  _48
REMARK   21  A    between atoms: _47  and  _50
REMARK   22  A    between atoms: _50  and  _51
REMARK   23  A    between atoms: _54  and  _56
REMARK   24  A    between atoms: _56  and  _57
REMARK   25  A    between atoms: _56  and  _59
REMARK   26  A    between atoms: _59  and  _60
REMARK   27  A    between atoms: _63  and  _65
REMARK   28  A    between atoms: _65  and  _66
REMARK   29  A    between atoms: _68  and  _70
REMARK   30  A    between atoms: _70  and  _71
REMARK   31  A    between atoms: _74  and  _76
REMARK   32  A    between atoms: _76  and  _77
REMARK   33  A    between atoms: _76  and  _79
REMARK   34  A    between atoms: _79  and  _80
REMARK   35  A    between atoms: _83  and  _85
REMARK   36  A    between atoms: _85  and  _86
REMARK   37  A    between atoms: _85  and  _88
REMARK   38  A    between atoms: _88  and  _89
REMARK   39  A    between atoms: _92  and  _94
REMARK   40  A    between atoms: _94  and  _95
REMARK   41  A    between atoms: _94  and  _97
REMARK   42  A    between atoms: _97  and  _98
REMARK   43  A    between atoms: _101  and  _103
REMARK   44  A    between atoms: _103  and  _104
REMARK   45  A    between atoms: _103  and  _106
REMARK   46  A    between atoms: _109  and  _111
REMARK   47  A    between atoms: _111  and  _112
REMARK   48  A    between atoms: _111  and  _114
REMARK   49  A    between atoms: _114  and  _115
REMARK   50  A    between atoms: _115  and  _116
REMARK   51  A    between atoms: _118  and  _120
REMARK   52  A    between atoms: _120  and  _121
REMARK   53  A    between atoms: _120  and  _123
REMARK   54  A    between atoms: _123  and  _124
REMARK   55  A    between atoms: _127  and  _129
REMARK   56  A    between atoms: _129  and  _130
REMARK   57  A    between atoms: _132  and  _134
REMARK   58  A    between atoms: _134  and  _135
REMARK   59  A    between atoms: _137  and  _139
REMARK   60  A    between atoms: _139  and  _140
REMARK   61  A    between atoms: _139  and  _142
REMARK   62  A    between atoms: _142  and  _143
REMARK   63  A    between atoms: _146  and  _148
REMARK   64  A    between atoms: _148  and  _149
REMARK   65  A    between atoms: _151  and  _153
REMARK   66  A    between atoms: _153  and  _154
REMARK   67  A    between atoms: _156  and  _158
REMARK   68  A    between atoms: _158  and  _159
REMARK   69  A    between atoms: _158  and  _161
REMARK   70  A    between atoms: _161  and  _162
REMARK   71  A    between atoms: _168  and  _170
REMARK   72  A    between atoms: _170  and  _171
REMARK   73  A    between atoms: _170  and  _173
REMARK   74  A    between atoms: _173  and  _174
REMARK   75  A    between atoms: _177  and  _179
REMARK   76  A    between atoms: _179  and  _180
REMARK   77  A    between atoms: _179  and  _182
REMARK   78  A    between atoms: _185  and  _187
REMARK   79  A    between atoms: _187  and  _188
REMARK   80  A    between atoms: _187  and  _190
REMARK   81  A    between atoms: _190  and  _191
REMARK   82  A    between atoms: _194  and  _196
REMARK   83  A    between atoms: _196  and  _197
REMARK   84  A    between atoms: _196  and  _199
REMARK   85  A    between atoms: _199  and  _200
REMARK   86  A    between atoms: _204  and  _205
REMARK   87  A    between atoms: _210  and  _212
REMARK   88  A    between atoms: _212  and  _213
REMARK   89  A    between atoms: _212  and  _215
REMARK   90  A    between atoms: _215  and  _216
REMARK   91  A    between atoms: _219  and  _221
REMARK   92  A    between atoms: _221  and  _222
REMARK   93  A    between atoms: _221  and  _224
REMARK   94  A    between atoms: _224  and  _225
REMARK   95  A    between atoms: _230  and  _232
REMARK   96  A    between atoms: _232  and  _233
REMARK   97  A    between atoms: _232  and  _235
REMARK   98  A    between atoms: _238  and  _240
REMARK   99  A    between atoms: _240  and  _241
REMARK  100  A    between atoms: _240  and  _243
REMARK  101  A    between atoms: _243  and  _244
REMARK  102  A    between atoms: _247  and  _249
REMARK  103  A    between atoms: _249  and  _250
REMARK  104  A    between atoms: _252  and  _254
REMARK  105  A    between atoms: _254  and  _255
REMARK  106  A    between atoms: _254  and  _257
REMARK  107  A    between atoms: _257  and  _258
REMARK  108  A    between atoms: _258  and  _259
REMARK  109  A    between atoms: _259  and  _260
REMARK  110  A    between atoms: _269  and  _271
REMARK  111  A    between atoms: _271  and  _272
REMARK  112  A    between atoms: _271  and  _274
REMARK  113  A    between atoms: _274  and  _275
REMARK  114  A    between atoms: _275  and  _276
REMARK  115  A    between atoms: _276  and  _277
REMARK  116  A    between atoms: _286  and  _288
REMARK  117  A    between atoms: _288  and  _289
REMARK  118  A    between atoms: _288  and  _291
REMARK  119  A    between atoms: _291  and  _292
REMARK  120  A    between atoms: _295  and  _297
REMARK  121  A    between atoms: _297  and  _298
REMARK  122  A    between atoms: _297  and  _300
REMARK  123  A    between atoms: _300  and  _301
REMARK  124  A    between atoms: _304  and  _306
REMARK  125  A    between atoms: _306  and  _307
REMARK  126  A    between atoms: _306  and  _309
REMARK  127  A    between atoms: _309  and  _310
REMARK  128  A    between atoms: _313  and  _315
REMARK  129  A    between atoms: _315  and  _316
REMARK  130  A    between atoms: _315  and  _318
REMARK  131  A    between atoms: _318  and  _319
REMARK  132  A    between atoms: _322  and  _324
REMARK  133  A    between atoms: _324  and  _325
REMARK  134  A    between atoms: _327  and  _329
REMARK  135  A    between atoms: _329  and  _330
REMARK  136  A    between atoms: _333  and  _335
REMARK  137  A    between atoms: _335  and  _336
REMARK  138  A    between atoms: _335  and  _338
REMARK  139  A    between atoms: _338  and  _339
REMARK  140  A    between atoms: _342  and  _344
REMARK  141  A    between atoms: _344  and  _345
REMARK  142  A    between atoms: _344  and  _347
REMARK  143  A    between atoms: _347  and  _348
REMARK  144  A    between atoms: _351  and  _353
REMARK  145  A    between atoms: _353  and  _354
REMARK  146  A    between atoms: _353  and  _356
REMARK  147  A    between atoms: _356  and  _357
REMARK  148  A    between atoms: _360  and  _362
REMARK  149  A    between atoms: _362  and  _363
REMARK  150  A    between atoms: _362  and  _365
REMARK  151  A    between atoms: _368  and  _370
REMARK  152  A    between atoms: _370  and  _371
REMARK  153  A    between atoms: _370  and  _373
REMARK  154  A    between atoms: _373  and  _374
REMARK  155  A    between atoms: _377  and  _379
REMARK  156  A    between atoms: _379  and  _380
REMARK  157  A    between atoms: _379  and  _382
REMARK  158  A    between atoms: _382  and  _383
REMARK  159  A    between atoms: _383  and  _384
REMARK  160  A    between atoms: _384  and  _385
REMARK  161  A    between atoms: _385  and  _386
REMARK  162  A    between atoms: _390  and  _392
REMARK  163  A    between atoms: _392  and  _393
REMARK  164  A    between atoms: _392  and  _395
REMARK  165  A    between atoms: _395  and  _396
REMARK  166  A    between atoms: _396  and  _397
REMARK  167  A    between atoms: _399  and  _401
REMARK  168  A    between atoms: _401  and  _402
REMARK  169  A    between atoms: _401  and  _404
REMARK  170  A    between atoms: _404  and  _405
REMARK  171  A    between atoms: _408  and  _410
REMARK  172  A    between atoms: _410  and  _411
REMARK  173  A    between atoms: _413  and  _415
REMARK  174  A    between atoms: _415  and  _416
REMARK  175  A    between atoms: _418  and  _420
REMARK  176  A    between atoms: _420  and  _421
REMARK  177  A    between atoms: _420  and  _423
REMARK  178  A    between atoms: _423  and  _424
REMARK  179  A    between atoms: _427  and  _429
REMARK  180  A    between atoms: _429  and  _430
REMARK  181  A    between atoms: _432  and  _434
REMARK  182  A    between atoms: _434  and  _435
REMARK  183  A    between atoms: _437  and  _439
REMARK  184  A    between atoms: _439  and  _440
REMARK  185  A    between atoms: _439  and  _442
REMARK  186  A    between atoms: _442  and  _443
REMARK  187  A    between atoms: _449  and  _451
REMARK  188  A    between atoms: _451  and  _452
REMARK  189  A    between atoms: _451  and  _454
REMARK  190  A    between atoms: _454  and  _455
REMARK  191  A    between atoms: _458  and  _460
REMARK  192  A    between atoms: _460  and  _461
REMARK  193  A    between atoms: _460  and  _463
REMARK  194  A    between atoms: _466  and  _468
REMARK  195  A    between atoms: _468  and  _469
REMARK  196  A    between atoms: _468  and  _471
REMARK  197  A    between atoms: _471  and  _472
REMARK  198  A    between atoms: _475  and  _477
REMARK  199  A    between atoms: _477  and  _478
REMARK  200  A    between atoms: _477  and  _480
REMARK  201  A    between atoms: _480  and  _481
REMARK  202  A    between atoms: _485  and  _486
REMARK  203  A    between atoms: _491  and  _493
REMARK  204  A    between atoms: _493  and  _494
REMARK  205  A    between atoms: _493  and  _496
REMARK  206  A    between atoms: _496  and  _497
REMARK  207  A    between atoms: _500  and  _502
REMARK  208  A    between atoms: _502  and  _503
REMARK  209  A    between atoms: _502  and  _505
REMARK  210  A    between atoms: _505  and  _506
REMARK  211  A    between atoms: _511  and  _513
REMARK  212  A    between atoms: _513  and  _514
REMARK  213  A    between atoms: _513  and  _516
REMARK  214  A    between atoms: _519  and  _521
REMARK  215  A    between atoms: _521  and  _522
REMARK  216  A    between atoms: _521  and  _524
REMARK  217  A    between atoms: _524  and  _525
REMARK  218  A    between atoms: _528  and  _530
REMARK  219  A    between atoms: _530  and  _531
REMARK  220  A    between atoms: _533  and  _535
REMARK  221  A    between atoms: _535  and  _536
REMARK  222  A    between atoms: _535  and  _538
REMARK  223  A    between atoms: _538  and  _539
REMARK  224  A    between atoms: _539  and  _540
REMARK  225  A    between atoms: _540  and  _541
REMARK  226  A    between atoms: _550  and  _552
REMARK  227  A    between atoms: _552  and  _553
REMARK  228  A    between atoms: _552  and  _555
REMARK  229  A    between atoms: _555  and  _556
REMARK                            x       y       z     vdW  Elec       q    Type
REMARK                         _______ _______ _______ _____ _____    ______ ____
ROOT
ATOM      1  C   GLY A   5       6.756  -1.883   8.523  0.00  0.00    +0.243 C 
ATOM      2  N   ILE A   6       7.159  -2.649   9.526  0.00  0.00    -0.297 N 
ATOM      3  H   ILE A   6       6.653  -2.617  10.434  0.00  0.00    +0.150 HD
ATOM      4  O   GLY A   5       7.328  -1.841   7.435  0.00  0.00    -0.273 OA
ENDROOT
BRANCH   2   5
ATOM      5  CA  ILE A   6       8.298  -3.531   9.371  0.00  0.00    +0.149 C 
BRANCH   5   6
ATOM      6  C   ILE A   6       7.699  -4.815   8.816  0.00  0.00    +0.241 C 
ATOM      7  O   ILE A   6       6.703  -5.318   9.332  0.00  0.00    -0.273 OA
ATOM      8  N   GLY A   7       8.296  -5.329   7.749  0.00  0.00    -0.295 N 
ATOM      9  H   GLY A   7       9.136  -4.862   7.351  0.00  0.00    +0.150 HD
BRANCH   8  10
ATOM     10  CA  GLY A   7       7.785  -6.536   7.135  0.00  0.00    +0.176 C 
BRANCH  10  11
ATOM     11  C   GLY A   7       7.176  -6.181   5.793  0.00  0.00    +0.243 C 
ATOM     12  N   GLY A   8       6.642  -4.966   5.682  0.00  0.00    -0.295 N 
ATOM     13  H   GLY A   8       6.648  -4.315   6.493  0.00  0.00    +0.150 HD
ATOM     14  O   GLY A   7       7.185  -6.994   4.868  0.00  0.00    -0.273 OA
BRANCH  12  15
ATOM     15  CA  GLY A   8       6.051  -4.556   4.421  0.00  0.00    +0.176 C 
BRANCH  15  16
ATOM     16  C   GLY A   8       4.735  -3.811   4.555  0.00  0.00    +0.243 C 
ATOM     17  O   GLY A   8       4.396  -3.279   5.616  0.00  0.00    -0.273 OA
ATOM     18  N   PHE A   9       3.977  -3.794   3.466  0.00  0.00    -0.297 N 
ATOM     19  H   PHE A   9       4.309  -4.281   2.609  0.00  0.00    +0.150 HD
BRANCH  18  20
ATOM     20  CA  PHE A   9       2.692  -3.110   3.441  0.00  0.00    +0.153 C 
BRANCH  20  21
ATOM     21  C   PHE A   9       1.489  -4.038   3.514  0.00  0.00    +0.241 C 
ATOM     22  N   ILE A  10       0.382  -3.523   4.028  0.00  0.00    -0.298 N 
ATOM     23  H   ILE A  10       0.387  -2.544   4.379  0.00  0.00    +0.150 HD
ATOM     24  O   PHE A   9       1.558  -5.195   3.116  0.00  0.00    -0.273 OA
BRANCH  22  25
ATOM     25  CA  ILE A  10      -0.841  -4.307   4.109  0.00  0.00    +0.137 C 
BRANCH  25  26
ATOM     26  C   ILE A  10      -2.019  -3.455   3.657  0.00  0.00    +0.227 C 
ATOM     27  O   ILE A  10      -1.965  -2.227   3.707  0.00  0.00    -0.286 OA
ENDBRANCH  25  26
BRANCH  25  28
ATOM     28  CB  ILE A  10      -1.110  -4.822   5.539  0.00  0.00    +0.026 C 
ATOM     29  CG2 ILE A  10       0.022  -5.742   5.991  0.00  0.00    +0.002 C 
BRANCH  28  30
ATOM     30  CG1 ILE A  10      -1.261  -3.647   6.498  0.00  0.00    +0.002 C 
ATOM     31  CD1 ILE A  10      -1.772  -4.057   7.866  0.00  0.00    +0.000 C 
ENDBRANCH  28  30
ENDBRANCH  25  28
ENDBRANCH  22  25
ENDBRANCH  20  21
BRANCH  20  32
ATOM     32  CB  PHE A   9       2.584  -2.271   2.175  0.00  0.00    +0.055 C 
BRANCH  32  33
ATOM     33  CG  PHE A   9       3.334  -0.977   2.240  0.00  0.00    -0.020 A 
ATOM     34  CD2 PHE A   9       2.642   0.229   2.341  0.00  0.00    -0.004 A 
ATOM     35  CE2 PHE A   9       3.326   1.442   2.395  0.00  0.00    -0.000 A 
ATOM     36  CZ  PHE A   9       4.719   1.454   2.351  0.00  0.00    -0.000 A 
ATOM     37  CE1 PHE A   9       5.418   0.260   2.254  0.00  0.00    -0.000 A 
ATOM     38  CD1 PHE A   9       4.722  -0.952   2.198  0.00  0.00    -0.004 A 
ENDBRANCH  32  33
ENDBRANCH  20  32
ENDBRANCH  18  20
ENDBRANCH  15  16
ENDBRANCH  12  15
ENDBRANCH  10  11
ENDBRANCH   8  10
ENDBRANCH   5   6
BRANCH   5  39
ATOM     39  CB  ILE A   6       8.998  -3.790  10.720  0.00  0.00    +0.027 C 
ATOM     40  CG2 ILE A   6      10.013  -4.913  10.574  0.00  0.00    +0.002 C 
BRANCH  39  41
ATOM     41  CG1 ILE A   6       9.679  -2.503  11.190  0.00  0.00    +0.002 C 
ATOM     42  CD1 ILE A   6      10.332  -2.604  12.540  0.00  0.00    +0.000 C 
ENDBRANCH  39  41
ENDBRANCH   5  39
ENDBRANCH   2   5
BRANCH   1  43
ATOM     43  CA  GLY A   5       5.526  -1.048   8.783  0.00  0.00    +0.176 C 
BRANCH  43  46
ATOM     44  C   GLY A   4       4.026   0.079   7.267  0.00  0.00    +0.243 C 
ATOM     45  O   GLY A   4       3.854   1.023   8.043  0.00  0.00    -0.273 OA
ATOM     46  N   GLY A   5       4.796  -0.963   7.540  0.00  0.00    -0.295 N 
ATOM     47  H   GLY A   5       4.876  -1.734   6.847  0.00  0.00    +0.150 HD
BRANCH  44  48
ATOM     48  CA  GLY A   4       3.354   0.026   5.917  0.00  0.00    +0.176 C 
BRANCH  48  50
ATOM     49  C   ILE A   3       1.024   0.327   5.461  0.00  0.00    +0.241 C 
ATOM     50  N   GLY A   4       2.179   0.860   5.829  0.00  0.00    -0.295 N 
ATOM     51  H   GLY A   4       2.239   1.874   6.053  0.00  0.00    +0.150 HD
ATOM     52  O   ILE A   3       0.893  -0.873   5.196  0.00  0.00    -0.273 OA
BRANCH  49  53
ATOM     53  CA  ILE A   3      -0.160   1.282   5.390  0.00  0.00    +0.149 C 
BRANCH  53  55
ATOM     54  C   MET A   2      -1.627   1.519   3.451  0.00  0.00    +0.241 C 
ATOM     55  N   ILE A   3      -1.090   0.759   4.401  0.00  0.00    -0.297 N 
ATOM     56  H   ILE A   3      -1.345  -0.249   4.438  0.00  0.00    +0.150 HD
ATOM     57  O   MET A   2      -1.427   2.731   3.347  0.00  0.00    -0.273 OA
BRANCH  54  58
ATOM     58  CA  MET A   2      -2.553   0.807   2.489  0.00  0.00    +0.149 C 
BRANCH  58  61
ATOM     59  C   LYS A   1      -4.936   1.137   2.464  0.00  0.00    +0.238 C 
ATOM     60  O   LYS A   1      -5.136  -0.027   2.812  0.00  0.00    -0.274 OA
ATOM     61  N   MET A   2      -3.722   1.624   2.260  0.00  0.00    -0.297 N 
ATOM     62  H   MET A   2      -3.609   2.604   1.932  0.00  0.00    +0.150 HD
BRANCH  59  63
ATOM     63  CA  LYS A   1      -6.089   2.101   2.228  0.00  0.00    +0.145 C 
BRANCH  63  64
ATOM     64  N   LYS A   1      -7.315   1.363   1.977  0.00  0.00    -0.238 NA
ATOM     65  H   LYS A   1      -7.484   0.473   2.489  0.00  0.00    +0.142 HD
ENDBRANCH  63  64
BRANCH  63  66
ATOM     66  CB  LYS A   1      -6.229   3.012   3.449  0.00  0.00    +0.026 C 
BRANCH  66  67
ATOM     67  CG  LYS A   1      -4.936   3.765   3.760  0.00  0.00    -0.000 C 
BRANCH  67  68
ATOM     68  CD  LYS A   1      -5.023   4.658   4.982  0.00  0.00    -0.024 C 
BRANCH  68  69
ATOM     69  CE  LYS A   1      -3.687   5.355   5.211  0.00  0.00    -0.086 C 
BRANCH  69  70
ATOM     70  NZ  LYS A   1      -3.691   6.245   6.403  0.00  0.00    +0.380 N 
ATOM     71  HZ1 LYS A   1      -3.904   5.684   7.252  0.00  0.00    -0.089 HD
ATOM     72  HZ2 LYS A   1      -2.756   6.689   6.505  0.00  0.00    -0.089 HD
ATOM     73  HZ3 LYS A   1      -4.415   6.982   6.282  0.00  0.00    -0.089 HD
ENDBRANCH  69  70
ENDBRANCH  68  69
ENDBRANCH  67  68
ENDBRANCH  66  67
ENDBRANCH  63  66
ENDBRANCH  59  63
ENDBRANCH  58  61
BRANCH  58  74
ATOM     74  CB  MET A   2      -1.825   0.527   1.180  0.00  0.00    +0.041 C 
BRANCH  74  75
ATOM     75  CG  MET A   2      -2.574  -0.417   0.267  0.00  0.00    +0.060 C 
BRANCH  75  76
ATOM     76  SD  MET A   2      -1.552  -0.913  -1.121  0.00  0.00    -0.139 S 
ATOM     77  CE  MET A   2      -0.675  -2.322  -0.415  0.00  0.00    +0.069 C 
ENDBRANCH  75  76
ENDBRANCH  74  75
ENDBRANCH  58  74
ENDBRANCH  54  58
ENDBRANCH  53  55
BRANCH  53  78
ATOM     78  CB  ILE A   3      -0.791   1.376   6.804  0.00  0.00    +0.027 C 
ATOM     79  CG2 ILE A   3      -1.869   2.459   6.831  0.00  0.00    +0.002 C 
BRANCH  78  80
ATOM     80  CG1 ILE A   3      -1.346   0.008   7.215  0.00  0.00    +0.002 C 
ATOM     81  CD1 ILE A   3      -1.865  -0.049   8.632  0.00  0.00    +0.000 C 
ENDBRANCH  78  80
ENDBRANCH  53  78
ENDBRANCH  49  53
ENDBRANCH  48  50
ENDBRANCH  44  48
ENDBRANCH  43  46
ENDBRANCH   1  43
TORSDOF 36
REMARK  Name = ../refined-set-2016/1k6p/1k6p_pocket.pdb
REMARK  229 active torsions:
REMARK  status: ('A' for Active; 'I' for Inactive)
REMARK    1  A    between atoms: _1  and  _3
REMARK    2  A    between atoms: _3  and  _4
REMARK    3  A    between atoms: _3  and  _6
REMARK    4  A    between atoms: _6  and  _7
REMARK    5  A    between atoms: _7  and  _8
REMARK    6  A    between atoms: _8  and  _9
REMARK    7  A    between atoms: _18  and  _20
REMARK    8  A    between atoms: _20  and  _21
REMARK    9  A    between atoms: _20  and  _23
REMARK   10  A    between atoms: _23  and  _24
REMARK   11  A    between atoms: _27  and  _29
REMARK   12  A    between atoms: _29  and  _30
REMARK   13  A    between atoms: _29  and  _32
REMARK   14  A    between atoms: _32  and  _33
REMARK   15  A    between atoms: _36  and  _38
REMARK   16  A    between atoms: _38  and  _39
REMARK   17  A    between atoms: _38  and  _41
REMARK   18  A    between atoms: _41  and  _42
REMARK   19  A    between atoms: _45  and  _47
REMARK   20  A    between atoms: _47  and  _48
REMARK   21  A    between atoms: _47  and  _50
REMARK   22  A    between atoms: _50  and  _51
REMARK   23  A    between atoms: _54  and  _56
REMARK   24  A    between atoms: _56  and  _57
REMARK   25  A    between atoms: _56  and  _59
REMARK   26  A    between atoms: _59  and  _60
REMARK   27  A    between atoms: _63  and  _65
REMARK   28  A    between atoms: _65  and  _66
REMARK   29  A    between atoms: _68  and  _70
REMARK   30  A    between atoms: _70  and  _71
REMARK   31  A    between atoms: _74  and  _76
REMARK   32  A    between atoms: _76  and  _77
REMARK   33  A    between atoms: _76  and  _79
REMARK   34  A    between atoms: _79  and  _80
REMARK   35  A    between atoms: _83  and  _85
REMARK   36  A    between atoms: _85  and  _86
REMARK   37  A    between atoms: _85  and  _88
REMARK   38  A    between atoms: _88  and  _89
REMARK   39  A    between atoms: _92  and  _94
REMARK   40  A    between atoms: _94  and  _95
REMARK   41  A    between atoms: _94  and  _97
REMARK   42  A    between atoms: _97  and  _98
REMARK   43  A    between atoms: _101  and  _103
REMARK   44  A    between atoms: _103  and  _104
REMARK   45  A    between atoms: _103  and  _106
REMARK   46  A    between atoms: _109  and  _111
REMARK   47  A    between atoms: _111  and  _112
REMARK   48  A    between atoms: _111  and  _114
REMARK   49  A    between atoms: _114  and  _115
REMARK   50  A    between atoms: _115  and  _116
REMARK   51  A    between atoms: _118  and  _120
REMARK   52  A    between atoms: _120  and  _121
REMARK   53  A    between atoms: _120  and  _123
REMARK   54  A    between atoms: _123  and  _124
REMARK   55  A    between atoms: _127  and  _129
REMARK   56  A    between atoms: _129  and  _130
REMARK   57  A    between atoms: _132  and  _134
REMARK   58  A    between atoms: _134  and  _135
REMARK   59  A    between atoms: _137  and  _139
REMARK   60  A    between atoms: _139  and  _140
REMARK   61  A    between atoms: _139  and  _142
REMARK   62  A    between atoms: _142  and  _143
REMARK   63  A    between atoms: _146  and  _148
REMARK   64  A    between atoms: _148  and  _149
REMARK   65  A    between atoms: _151  and  _153
REMARK   66  A    between atoms: _153  and  _154
REMARK   67  A    between atoms: _156  and  _158
REMARK   68  A    between atoms: _158  and  _159
REMARK   69  A    between atoms: _158  and  _161
REMARK   70  A    between atoms: _161  and  _162
REMARK   71  A    between atoms: _168  and  _170
REMARK   72  A    between atoms: _170  and  _171
REMARK   73  A    between atoms: _170  and  _173
REMARK   74  A    between atoms: _173  and  _174
REMARK   75  A    between atoms: _177  and  _179
REMARK   76  A    between atoms: _179  and  _180
REMARK   77  A    between atoms: _179  and  _182
REMARK   78  A    between atoms: _185  and  _187
REMARK   79  A    between atoms: _187  and  _188
REMARK   80  A    between atoms: _187  and  _190
REMARK   81  A    between atoms: _190  and  _191
REMARK   82  A    between atoms: _194  and  _196
REMARK   83  A    between atoms: _196  and  _197
REMARK   84  A    between atoms: _196  and  _199
REMARK   85  A    between atoms: _199  and  _200
REMARK   86  A    between atoms: _204  and  _205
REMARK   87  A    between atoms: _210  and  _212
REMARK   88  A    between atoms: _212  and  _213
REMARK   89  A    between atoms: _212  and  _215
REMARK   90  A    between atoms: _215  and  _216
REMARK   91  A    between atoms: _219  and  _221
REMARK   92  A    between atoms: _221  and  _222
REMARK   93  A    between atoms: _221  and  _224
REMARK   94  A    between atoms: _224  and  _225
REMARK   95  A    between atoms: _230  and  _232
REMARK   96  A    between atoms: _232  and  _233
REMARK   97  A    between atoms: _232  and  _235
REMARK   98  A    between atoms: _238  and  _240
REMARK   99  A    between atoms: _240  and  _241
REMARK  100  A    between atoms: _240  and  _243
REMARK  101  A    between atoms: _243  and  _244
REMARK  102  A    between atoms: _247  and  _249
REMARK  103  A    between atoms: _249  and  _250
REMARK  104  A    between atoms: _252  and  _254
REMARK  105  A    between atoms: _254  and  _255
REMARK  106  A    between atoms: _254  and  _257
REMARK  107  A    between atoms: _257  and  _258
REMARK  108  A    between atoms: _258  and  _259
REMARK  109  A    between atoms: _259  and  _260
REMARK  110  A    between atoms: _269  and  _271
REMARK  111  A    between atoms: _271  and  _272
REMARK  112  A    between atoms: _271  and  _274
REMARK  113  A    between atoms: _274  and  _275
REMARK  114  A    between atoms: _275  and  _276
REMARK  115  A    between atoms: _276  and  _277
REMARK  116  A    between atoms: _286  and  _288
REMARK  117  A    between atoms: _288  and  _289
REMARK  118  A    between atoms: _288  and  _291
REMARK  119  A    between atoms: _291  and  _292
REMARK  120  A    between atoms: _295  and  _297
REMARK  121  A    between atoms: _297  and  _298
REMARK  122  A    between atoms: _297  and  _300
REMARK  123  A    between atoms: _300  and  _301
REMARK  124  A    between atoms: _304  and  _306
REMARK  125  A    between atoms: _306  and  _307
REMARK  126  A    between atoms: _306  and  _309
REMARK  127  A    between atoms: _309  and  _310
REMARK  128  A    between atoms: _313  and  _315
REMARK  129  A    between atoms: _315  and  _316
REMARK  130  A    between atoms: _315  and  _318
REMARK  131  A    between atoms: _318  and  _319
REMARK  132  A    between atoms: _322  and  _324
REMARK  133  A    between atoms: _324  and  _325
REMARK  134  A    between atoms: _327  and  _329
REMARK  135  A    between atoms: _329  and  _330
REMARK  136  A    between atoms: _333  and  _335
REMARK  137  A    between atoms: _335  and  _336
REMARK  138  A    between atoms: _335  and  _338
REMARK  139  A    between atoms: _338  and  _339
REMARK  140  A    between atoms: _342  and  _344
REMARK  141  A    between atoms: _344  and  _345
REMARK  142  A    between atoms: _344  and  _347
REMARK  143  A    between atoms: _347  and  _348
REMARK  144  A    between atoms: _351  and  _353
REMARK  145  A    between atoms: _353  and  _354
REMARK  146  A    between atoms: _353  and  _356
REMARK  147  A    between atoms: _356  and  _357
REMARK  148  A    between atoms: _360  and  _362
REMARK  149  A    between atoms: _362  and  _363
REMARK  150  A    between atoms: _362  and  _365
REMARK  151  A    between atoms: _368  and  _370
REMARK  152  A    between atoms: _370  and  _371
REMARK  153  A    between atoms: _370  and  _373
REMARK  154  A    between atoms: _373  and  _374
REMARK  155  A    between atoms: _377  and  _379
REMARK  156  A    between atoms: _379  and  _380
REMARK  157  A    between atoms: _379  and  _382
REMARK  158  A    between atoms: _382  and  _383
REMARK  159  A    between atoms: _383  and  _384
REMARK  160  A    between atoms: _384  and  _385
REMARK  161  A    between atoms: _385  and  _386
REMARK  162  A    between atoms: _390  and  _392
REMARK  163  A    between atoms: _392  and  _393
REMARK  164  A    between atoms: _392  and  _395
REMARK  165  A    between atoms: _395  and  _396
REMARK  166  A    between atoms: _396  and  _397
REMARK  167  A    between atoms: _399  and  _401
REMARK  168  A    between atoms: _401  and  _402
REMARK  169  A    between atoms: _401  and  _404
REMARK  170  A    between atoms: _404  and  _405
REMARK  171  A    between atoms: _408  and  _410
REMARK  172  A    between atoms: _410  and  _411
REMARK  173  A    between atoms: _413  and  _415
REMARK  174  A    between atoms: _415  and  _416
REMARK  175  A    between atoms: _418  and  _420
REMARK  176  A    between atoms: _420  and  _421
REMARK  177  A    between atoms: _420  and  _423
REMARK  178  A    between atoms: _423  and  _424
REMARK  179  A    between atoms: _427  and  _429
REMARK  180  A    between atoms: _429  and  _430
REMARK  181  A    between atoms: _432  and  _434
REMARK  182  A    between atoms: _434  and  _435
REMARK  183  A    between atoms: _437  and  _439
REMARK  184  A    between atoms: _439  and  _440
REMARK  185  A    between atoms: _439  and  _442
REMARK  186  A    between atoms: _442  and  _443
REMARK  187  A    between atoms: _449  and  _451
REMARK  188  A    between atoms: _451  and  _452
REMARK  189  A    between atoms: _451  and  _454
REMARK  190  A    between atoms: _454  and  _455
REMARK  191  A    between atoms: _458  and  _460
REMARK  192  A    between atoms: _460  and  _461
REMARK  193  A    between atoms: _460  and  _463
REMARK  194  A    between atoms: _466  and  _468
REMARK  195  A    between atoms: _468  and  _469
REMARK  196  A    between atoms: _468  and  _471
REMARK  197  A    between atoms: _471  and  _472
REMARK  198  A    between atoms: _475  and  _477
REMARK  199  A    between atoms: _477  and  _478
REMARK  200  A    between atoms: _477  and  _480
REMARK  201  A    between atoms: _480  and  _481
REMARK  202  A    between atoms: _485  and  _486
REMARK  203  A    between atoms: _491  and  _493
REMARK  204  A    between atoms: _493  and  _494
REMARK  205  A    between atoms: _493  and  _496
REMARK  206  A    between atoms: _496  and  _497
REMARK  207  A    between atoms: _500  and  _502
REMARK  208  A    between atoms: _502  and  _503
REMARK  209  A    between atoms: _502  and  _505
REMARK  210  A    between atoms: _505  and  _506
REMARK  211  A    between atoms: _511  and  _513
REMARK  212  A    between atoms: _513  and  _514
REMARK  213  A    between atoms: _513  and  _516
REMARK  214  A    between atoms: _519  and  _521
REMARK  215  A    between atoms: _521  and  _522
REMARK  216  A    between atoms: _521  and  _524
REMARK  217  A    between atoms: _524  and  _525
REMARK  218  A    between atoms: _528  and  _530
REMARK  219  A    between atoms: _530  and  _531
REMARK  220  A    between atoms: _533  and  _535
REMARK  221  A    between atoms: _535  and  _536
REMARK  222  A    between atoms: _535  and  _538
REMARK  223  A    between atoms: _538  and  _539
REMARK  224  A    between atoms: _539  and  _540
REMARK  225  A    between atoms: _540  and  _541
REMARK  226  A    between atoms: _550  and  _552
REMARK  227  A    between atoms: _552  and  _553
REMARK  228  A    between atoms: _552  and  _555
REMARK  229  A    between atoms: _555  and  _556
REMARK                            x       y       z     vdW  Elec       q    Type
REMARK                         _______ _______ _______ _____ _____    ______ ____
ROOT
ATOM      1  CA  VAL A   1      -6.779  -2.081   5.244  0.00  0.00    +0.133 C 
ENDROOT
BRANCH   1   2
ATOM      2  CB  VAL A   1      -6.130  -1.441   6.494  0.00  0.00    +0.023 C 
ATOM      3  CG2 VAL A   1      -5.057  -2.371   7.062  0.00  0.00    +0.002 C 
ATOM      4  CG1 VAL A   1      -5.536  -0.102   6.132  0.00  0.00    +0.002 C 
ENDBRANCH   1   2
BRANCH   1   5
ATOM      5  N   VAL A   1      -5.815  -2.209   4.160  0.00  0.00    -0.239 NA
ATOM      6  H   VAL A   1      -5.555  -1.374   3.598  0.00  0.00    +0.142 HD
ENDBRANCH   1   5
BRANCH   1   7
ATOM      7  C   VAL A   1      -8.000  -1.261   4.854  0.00  0.00    +0.224 C 
ATOM      8  O   VAL A   1      -8.029  -0.627   3.802  0.00  0.00    -0.287 OA
ENDBRANCH   1   7
TORSDOF 3
REMARK  Name = ../refined-set-2016/1k6p/1k6p_pocket.pdb
REMARK  229 active torsions:
REMARK  status: ('A' for Active; 'I' for Inactive)
REMARK    1  A    between atoms: _1  and  _3
REMARK    2  A    between atoms: _3  and  _4
REMARK    3  A    between atoms: _3  and  _6
REMARK    4  A    between atoms: _6  and  _7
REMARK    5  A    between atoms: _7  and  _8
REMARK    6  A    between atoms: _8  and  _9
REMARK    7  A    between atoms: _18  and  _20
REMARK    8  A    between atoms: _20  and  _21
REMARK    9  A    between atoms: _20  and  _23
REMARK   10  A    between atoms: _23  and  _24
REMARK   11  A    between atoms: _27  and  _29
REMARK   12  A    between atoms: _29  and  _30
REMARK   13  A    between atoms: _29  and  _32
REMARK   14  A    between atoms: _32  and  _33
REMARK   15  A    between atoms: _36  and  _38
REMARK   16  A    between atoms: _38  and  _39
REMARK   17  A    between atoms: _38  and  _41
REMARK   18  A    between atoms: _41  and  _42
REMARK   19  A    between atoms: _45  and  _47
REMARK   20  A    between atoms: _47  and  _48
REMARK   21  A    between atoms: _47  and  _50
REMARK   22  A    between atoms: _50  and  _51
REMARK   23  A    between atoms: _54  and  _56
REMARK   24  A    between atoms: _56  and  _57
REMARK   25  A    between atoms: _56  and  _59
REMARK   26  A    between atoms: _59  and  _60
REMARK   27  A    between atoms: _63  and  _65
REMARK   28  A    between atoms: _65  and  _66
REMARK   29  A    between atoms: _68  and  _70
REMARK   30  A    between atoms: _70  and  _71
REMARK   31  A    between atoms: _74  and  _76
REMARK   32  A    between atoms: _76  and  _77
REMARK   33  A    between atoms: _76  and  _79
REMARK   34  A    between atoms: _79  and  _80
REMARK   35  A    between atoms: _83  and  _85
REMARK   36  A    between atoms: _85  and  _86
REMARK   37  A    between atoms: _85  and  _88
REMARK   38  A    between atoms: _88  and  _89
REMARK   39  A    between atoms: _92  and  _94
REMARK   40  A    between atoms: _94  and  _95
REMARK   41  A    between atoms: _94  and  _97
REMARK   42  A    between atoms: _97  and  _98
REMARK   43  A    between atoms: _101  and  _103
REMARK   44  A    between atoms: _103  and  _104
REMARK   45  A    between atoms: _103  and  _106
REMARK   46  A    between atoms: _109  and  _111
REMARK   47  A    between atoms: _111  and  _112
REMARK   48  A    between atoms: _111  and  _114
REMARK   49  A    between atoms: _114  and  _115
REMARK   50  A    between atoms: _115  and  _116
REMARK   51  A    between atoms: _118  and  _120
REMARK   52  A    between atoms: _120  and  _121
REMARK   53  A    between atoms: _120  and  _123
REMARK   54  A    between atoms: _123  and  _124
REMARK   55  A    between atoms: _127  and  _129
REMARK   56  A    between atoms: _129  and  _130
REMARK   57  A    between atoms: _132  and  _134
REMARK   58  A    between atoms: _134  and  _135
REMARK   59  A    between atoms: _137  and  _139
REMARK   60  A    between atoms: _139  and  _140
REMARK   61  A    between atoms: _139  and  _142
REMARK   62  A    between atoms: _142  and  _143
REMARK   63  A    between atoms: _146  and  _148
REMARK   64  A    between atoms: _148  and  _149
REMARK   65  A    between atoms: _151  and  _153
REMARK   66  A    between atoms: _153  and  _154
REMARK   67  A    between atoms: _156  and  _158
REMARK   68  A    between atoms: _158  and  _159
REMARK   69  A    between atoms: _158  and  _161
REMARK   70  A    between atoms: _161  and  _162
REMARK   71  A    between atoms: _168  and  _170
REMARK   72  A    between atoms: _170  and  _171
REMARK   73  A    between atoms: _170  and  _173
REMARK   74  A    between atoms: _173  and  _174
REMARK   75  A    between atoms: _177  and  _179
REMARK   76  A    between atoms: _179  and  _180
REMARK   77  A    between atoms: _179  and  _182
REMARK   78  A    between atoms: _185  and  _187
REMARK   79  A    between atoms: _187  and  _188
REMARK   80  A    between atoms: _187  and  _190
REMARK   81  A    between atoms: _190  and  _191
REMARK   82  A    between atoms: _194  and  _196
REMARK   83  A    between atoms: _196  and  _197
REMARK   84  A    between atoms: _196  and  _199
REMARK   85  A    between atoms: _199  and  _200
REMARK   86  A    between atoms: _204  and  _205
REMARK   87  A    between atoms: _210  and  _212
REMARK   88  A    between atoms: _212  and  _213
REMARK   89  A    between atoms: _212  and  _215
REMARK   90  A    between atoms: _215  and  _216
REMARK   91  A    between atoms: _219  and  _221
REMARK   92  A    between atoms: _221  and  _222
REMARK   93  A    between atoms: _221  and  _224
REMARK   94  A    between atoms: _224  and  _225
REMARK   95  A    between atoms: _230  and  _232
REMARK   96  A    between atoms: _232  and  _233
REMARK   97  A    between atoms: _232  and  _235
REMARK   98  A    between atoms: _238  and  _240
REMARK   99  A    between atoms: _240  and  _241
REMARK  100  A    between atoms: _240  and  _243
REMARK  101  A    between atoms: _243  and  _244
REMARK  102  A    between atoms: _247  and  _249
REMARK  103  A    between atoms: _249  and  _250
REMARK  104  A    between atoms: _252  and  _254
REMARK  105  A    between atoms: _254  and  _255
REMARK  106  A    between atoms: _254  and  _257
REMARK  107  A    between atoms: _257  and  _258
REMARK  108  A    between atoms: _258  and  _259
REMARK  109  A    between atoms: _259  and  _260
REMARK  110  A    between atoms: _269  and  _271
REMARK  111  A    between atoms: _271  and  _272
REMARK  112  A    between atoms: _271  and  _274
REMARK  113  A    between atoms: _274  and  _275
REMARK  114  A    between atoms: _275  and  _276
REMARK  115  A    between atoms: _276  and  _277
REMARK  116  A    between atoms: _286  and  _288
REMARK  117  A    between atoms: _288  and  _289
REMARK  118  A    between atoms: _288  and  _291
REMARK  119  A    between atoms: _291  and  _292
REMARK  120  A    between atoms: _295  and  _297
REMARK  121  A    between atoms: _297  and  _298
REMARK  122  A    between atoms: _297  and  _300
REMARK  123  A    between atoms: _300  and  _301
REMARK  124  A    between atoms: _304  and  _306
REMARK  125  A    between atoms: _306  and  _307
REMARK  126  A    between atoms: _306  and  _309
REMARK  127  A    between atoms: _309  and  _310
REMARK  128  A    between atoms: _313  and  _315
REMARK  129  A    between atoms: _315  and  _316
REMARK  130  A    between atoms: _315  and  _318
REMARK  131  A    between atoms: _318  and  _319
REMARK  132  A    between atoms: _322  and  _324
REMARK  133  A    between atoms: _324  and  _325
REMARK  134  A    between atoms: _327  and  _329
REMARK  135  A    between atoms: _329  and  _330
REMARK  136  A    between atoms: _333  and  _335
REMARK  137  A    between atoms: _335  and  _336
REMARK  138  A    between atoms: _335  and  _338
REMARK  139  A    between atoms: _338  and  _339
REMARK  140  A    between atoms: _342  and  _344
REMARK  141  A    between atoms: _344  and  _345
REMARK  142  A    between atoms: _344  and  _347
REMARK  143  A    between atoms: _347  and  _348
REMARK  144  A    between atoms: _351  and  _353
REMARK  145  A    between atoms: _353  and  _354
REMARK  146  A    between atoms: _353  and  _356
REMARK  147  A    between atoms: _356  and  _357
REMARK  148  A    between atoms: _360  and  _362
REMARK  149  A    between atoms: _362  and  _363
REMARK  150  A    between atoms: _362  and  _365
REMARK  151  A    between atoms: _368  and  _370
REMARK  152  A    between atoms: _370  and  _371
REMARK  153  A    between atoms: _370  and  _373
REMARK  154  A    between atoms: _373  and  _374
REMARK  155  A    between atoms: _377  and  _379
REMARK  156  A    between atoms: _379  and  _380
REMARK  157  A    between atoms: _379  and  _382
REMARK  158  A    between atoms: _382  and  _383
REMARK  159  A    between atoms: _383  and  _384
REMARK  160  A    between atoms: _384  and  _385
REMARK  161  A    between atoms: _385  and  _386
REMARK  162  A    between atoms: _390  and  _392
REMARK  163  A    between atoms: _392  and  _393
REMARK  164  A    between atoms: _392  and  _395
REMARK  165  A    between atoms: _395  and  _396
REMARK  166  A    between atoms: _396  and  _397
REMARK  167  A    between atoms: _399  and  _401
REMARK  168  A    between atoms: _401  and  _402
REMARK  169  A    between atoms: _401  and  _404
REMARK  170  A    between atoms: _404  and  _405
REMARK  171  A    between atoms: _408  and  _410
REMARK  172  A    between atoms: _410  and  _411
REMARK  173  A    between atoms: _413  and  _415
REMARK  174  A    between atoms: _415  and  _416
REMARK  175  A    between atoms: _418  and  _420
REMARK  176  A    between atoms: _420  and  _421
REMARK  177  A    between atoms: _420  and  _423
REMARK  178  A    between atoms: _423  and  _424
REMARK  179  A    between atoms: _427  and  _429
REMARK  180  A    between atoms: _429  and  _430
REMARK  181  A    between atoms: _432  and  _434
REMARK  182  A    between atoms: _434  and  _435
REMARK  183  A    between atoms: _437  and  _439
REMARK  184  A    between atoms: _439  and  _440
REMARK  185  A    between atoms: _439  and  _442
REMARK  186  A    between atoms: _442  and  _443
REMARK  187  A    between atoms: _449  and  _451
REMARK  188  A    between atoms: _451  and  _452
REMARK  189  A    between atoms: _451  and  _454
REMARK  190  A    between atoms: _454  and  _455
REMARK  191  A    between atoms: _458  and  _460
REMARK  192  A    between atoms: _460  and  _461
REMARK  193  A    between atoms: _460  and  _463
REMARK  194  A    between atoms: _466  and  _468
REMARK  195  A    between atoms: _468  and  _469
REMARK  196  A    between atoms: _468  and  _471
REMARK  197  A    between atoms: _471  and  _472
REMARK  198  A    between atoms: _475  and  _477
REMARK  199  A    between atoms: _477  and  _478
REMARK  200  A    between atoms: _477  and  _480
REMARK  201  A    between atoms: _480  and  _481
REMARK  202  A    between atoms: _485  and  _486
REMARK  203  A    between atoms: _491  and  _493
REMARK  204  A    between atoms: _493  and  _494
REMARK  205  A    between atoms: _493  and  _496
REMARK  206  A    between atoms: _496  and  _497
REMARK  207  A    between atoms: _500  and  _502
REMARK  208  A    between atoms: _502  and  _503
REMARK  209  A    between atoms: _502  and  _505
REMARK  210  A    between atoms: _505  and  _506
REMARK  211  A    between atoms: _511  and  _513
REMARK  212  A    between atoms: _513  and  _514
REMARK  213  A    between atoms: _513  and  _516
REMARK  214  A    between atoms: _519  and  _521
REMARK  215  A    between atoms: _521  and  _522
REMARK  216  A    between atoms: _521  and  _524
REMARK  217  A    between atoms: _524  and  _525
REMARK  218  A    between atoms: _528  and  _530
REMARK  219  A    between atoms: _530  and  _531
REMARK  220  A    between atoms: _533  and  _535
REMARK  221  A    between atoms: _535  and  _536
REMARK  222  A    between atoms: _535  and  _538
REMARK  223  A    between atoms: _538  and  _539
REMARK  224  A    between atoms: _539  and  _540
REMARK  225  A    between atoms: _540  and  _541
REMARK  226  A    between atoms: _550  and  _552
REMARK  227  A    between atoms: _552  and  _553
REMARK  228  A    between atoms: _552  and  _555
REMARK  229  A    between atoms: _555  and  _556
REMARK                            x       y       z     vdW  Elec       q    Type
REMARK                         _______ _______ _______ _____ _____    ______ ____
ROOT
ATOM      1  CA  LEU A   1      -8.158   1.272  10.278  0.00  0.00    +0.133 C 
ENDROOT
BRANCH   1   2
ATOM      2  N   LEU A   1      -8.424   2.193  11.369  0.00  0.00    -0.239 NA
ATOM      3  H   LEU A   1      -7.725   2.307  12.130  0.00  0.00    +0.142 HD
ENDBRANCH   1   2
BRANCH   1   4
ATOM      4  C   LEU A   1      -8.431  -0.147  10.789  0.00  0.00    +0.224 C 
ATOM      5  O   LEU A   1      -8.191  -0.447  11.961  0.00  0.00    -0.287 OA
ENDBRANCH   1   4
BRANCH   1   6
ATOM      6  CB  LEU A   1      -6.706   1.414   9.817  0.00  0.00    +0.025 C 
BRANCH   6   7
ATOM      7  CG  LEU A   1      -6.293   2.850   9.467  0.00  0.00    +0.002 C 
ATOM      8  CD2 LEU A   1      -4.818   2.887   9.125  0.00  0.00    +0.000 C 
ATOM      9  CD1 LEU A   1      -7.130   3.367   8.299  0.00  0.00    +0.000 C 
ENDBRANCH   6   7
ENDBRANCH   1   6
TORSDOF 4
REMARK  Name = ../refined-set-2016/1k6p/1k6p_pocket.pdb
REMARK  229 active torsions:
REMARK  status: ('A' for Active; 'I' for Inactive)
REMARK    1  A    between atoms: _1  and  _3
REMARK    2  A    between atoms: _3  and  _4
REMARK    3  A    between atoms: _3  and  _6
REMARK    4  A    between atoms: _6  and  _7
REMARK    5  A    between atoms: _7  and  _8
REMARK    6  A    between atoms: _8  and  _9
REMARK    7  A    between atoms: _18  and  _20
REMARK    8  A    between atoms: _20  and  _21
REMARK    9  A    between atoms: _20  and  _23
REMARK   10  A    between atoms: _23  and  _24
REMARK   11  A    between atoms: _27  and  _29
REMARK   12  A    between atoms: _29  and  _30
REMARK   13  A    between atoms: _29  and  _32
REMARK   14  A    between atoms: _32  and  _33
REMARK   15  A    between atoms: _36  and  _38
REMARK   16  A    between atoms: _38  and  _39
REMARK   17  A    between atoms: _38  and  _41
REMARK   18  A    between atoms: _41  and  _42
REMARK   19  A    between atoms: _45  and  _47
REMARK   20  A    between atoms: _47  and  _48
REMARK   21  A    between atoms: _47  and  _50
REMARK   22  A    between atoms: _50  and  _51
REMARK   23  A    between atoms: _54  and  _56
REMARK   24  A    between atoms: _56  and  _57
REMARK   25  A    between atoms: _56  and  _59
REMARK   26  A    between atoms: _59  and  _60
REMARK   27  A    between atoms: _63  and  _65
REMARK   28  A    between atoms: _65  and  _66
REMARK   29  A    between atoms: _68  and  _70
REMARK   30  A    between atoms: _70  and  _71
REMARK   31  A    between atoms: _74  and  _76
REMARK   32  A    between atoms: _76  and  _77
REMARK   33  A    between atoms: _76  and  _79
REMARK   34  A    between atoms: _79  and  _80
REMARK   35  A    between atoms: _83  and  _85
REMARK   36  A    between atoms: _85  and  _86
REMARK   37  A    between atoms: _85  and  _88
REMARK   38  A    between atoms: _88  and  _89
REMARK   39  A    between atoms: _92  and  _94
REMARK   40  A    between atoms: _94  and  _95
REMARK   41  A    between atoms: _94  and  _97
REMARK   42  A    between atoms: _97  and  _98
REMARK   43  A    between atoms: _101  and  _103
REMARK   44  A    between atoms: _103  and  _104
REMARK   45  A    between atoms: _103  and  _106
REMARK   46  A    between atoms: _109  and  _111
REMARK   47  A    between atoms: _111  and  _112
REMARK   48  A    between atoms: _111  and  _114
REMARK   49  A    between atoms: _114  and  _115
REMARK   50  A    between atoms: _115  and  _116
REMARK   51  A    between atoms: _118  and  _120
REMARK   52  A    between atoms: _120  and  _121
REMARK   53  A    between atoms: _120  and  _123
REMARK   54  A    between atoms: _123  and  _124
REMARK   55  A    between atoms: _127  and  _129
REMARK   56  A    between atoms: _129  and  _130
REMARK   57  A    between atoms: _132  and  _134
REMARK   58  A    between atoms: _134  and  _135
REMARK   59  A    between atoms: _137  and  _139
REMARK   60  A    between atoms: _139  and  _140
REMARK   61  A    between atoms: _139  and  _142
REMARK   62  A    between atoms: _142  and  _143
REMARK   63  A    between atoms: _146  and  _148
REMARK   64  A    between atoms: _148  and  _149
REMARK   65  A    between atoms: _151  and  _153
REMARK   66  A    between atoms: _153  and  _154
REMARK   67  A    between atoms: _156  and  _158
REMARK   68  A    between atoms: _158  and  _159
REMARK   69  A    between atoms: _158  and  _161
REMARK   70  A    between atoms: _161  and  _162
REMARK   71  A    between atoms: _168  and  _170
REMARK   72  A    between atoms: _170  and  _171
REMARK   73  A    between atoms: _170  and  _173
REMARK   74  A    between atoms: _173  and  _174
REMARK   75  A    between atoms: _177  and  _179
REMARK   76  A    between atoms: _179  and  _180
REMARK   77  A    between atoms: _179  and  _182
REMARK   78  A    between atoms: _185  and  _187
REMARK   79  A    between atoms: _187  and  _188
REMARK   80  A    between atoms: _187  and  _190
REMARK   81  A    between atoms: _190  and  _191
REMARK   82  A    between atoms: _194  and  _196
REMARK   83  A    between atoms: _196  and  _197
REMARK   84  A    between atoms: _196  and  _199
REMARK   85  A    between atoms: _199  and  _200
REMARK   86  A    between atoms: _204  and  _205
REMARK   87  A    between atoms: _210  and  _212
REMARK   88  A    between atoms: _212  and  _213
REMARK   89  A    between atoms: _212  and  _215
REMARK   90  A    between atoms: _215  and  _216
REMARK   91  A    between atoms: _219  and  _221
REMARK   92  A    between atoms: _221  and  _222
REMARK   93  A    between atoms: _221  and  _224
REMARK   94  A    between atoms: _224  and  _225
REMARK   95  A    between atoms: _230  and  _232
REMARK   96  A    between atoms: _232  and  _233
REMARK   97  A    between atoms: _232  and  _235
REMARK   98  A    between atoms: _238  and  _240
REMARK   99  A    between atoms: _240  and  _241
REMARK  100  A    between atoms: _240  and  _243
REMARK  101  A    between atoms: _243  and  _244
REMARK  102  A    between atoms: _247  and  _249
REMARK  103  A    between atoms: _249  and  _250
REMARK  104  A    between atoms: _252  and  _254
REMARK  105  A    between atoms: _254  and  _255
REMARK  106  A    between atoms: _254  and  _257
REMARK  107  A    between atoms: _257  and  _258
REMARK  108  A    between atoms: _258  and  _259
REMARK  109  A    between atoms: _259  and  _260
REMARK  110  A    between atoms: _269  and  _271
REMARK  111  A    between atoms: _271  and  _272
REMARK  112  A    between atoms: _271  and  _274
REMARK  113  A    between atoms: _274  and  _275
REMARK  114  A    between atoms: _275  and  _276
REMARK  115  A    between atoms: _276  and  _277
REMARK  116  A    between atoms: _286  and  _288
REMARK  117  A    between atoms: _288  and  _289
REMARK  118  A    between atoms: _288  and  _291
REMARK  119  A    between atoms: _291  and  _292
REMARK  120  A    between atoms: _295  and  _297
REMARK  121  A    between atoms: _297  and  _298
REMARK  122  A    between atoms: _297  and  _300
REMARK  123  A    between atoms: _300  and  _301
REMARK  124  A    between atoms: _304  and  _306
REMARK  125  A    between atoms: _306  and  _307
REMARK  126  A    between atoms: _306  and  _309
REMARK  127  A    between atoms: _309  and  _310
REMARK  128  A    between atoms: _313  and  _315
REMARK  129  A    between atoms: _315  and  _316
REMARK  130  A    between atoms: _315  and  _318
REMARK  131  A    between atoms: _318  and  _319
REMARK  132  A    between atoms: _322  and  _324
REMARK  133  A    between atoms: _324  and  _325
REMARK  134  A    between atoms: _327  and  _329
REMARK  135  A    between atoms: _329  and  _330
REMARK  136  A    between atoms: _333  and  _335
REMARK  137  A    between atoms: _335  and  _336
REMARK  138  A    between atoms: _335  and  _338
REMARK  139  A    between atoms: _338  and  _339
REMARK  140  A    between atoms: _342  and  _344
REMARK  141  A    between atoms: _344  and  _345
REMARK  142  A    between atoms: _344  and  _347
REMARK  143  A    between atoms: _347  and  _348
REMARK  144  A    between atoms: _351  and  _353
REMARK  145  A    between atoms: _353  and  _354
REMARK  146  A    between atoms: _353  and  _356
REMARK  147  A    between atoms: _356  and  _357
REMARK  148  A    between atoms: _360  and  _362
REMARK  149  A    between atoms: _362  and  _363
REMARK  150  A    between atoms: _362  and  _365
REMARK  151  A    between atoms: _368  and  _370
REMARK  152  A    between atoms: _370  and  _371
REMARK  153  A    between atoms: _370  and  _373
REMARK  154  A    between atoms: _373  and  _374
REMARK  155  A    between atoms: _377  and  _379
REMARK  156  A    between atoms: _379  and  _380
REMARK  157  A    between atoms: _379  and  _382
REMARK  158  A    between atoms: _382  and  _383
REMARK  159  A    between atoms: _383  and  _384
REMARK  160  A    between atoms: _384  and  _385
REMARK  161  A    between atoms: _385  and  _386
REMARK  162  A    between atoms: _390  and  _392
REMARK  163  A    between atoms: _392  and  _393
REMARK  164  A    between atoms: _392  and  _395
REMARK  165  A    between atoms: _395  and  _396
REMARK  166  A    between atoms: _396  and  _397
REMARK  167  A    between atoms: _399  and  _401
REMARK  168  A    between atoms: _401  and  _402
REMARK  169  A    between atoms: _401  and  _404
REMARK  170  A    between atoms: _404  and  _405
REMARK  171  A    between atoms: _408  and  _410
REMARK  172  A    between atoms: _410  and  _411
REMARK  173  A    between atoms: _413  and  _415
REMARK  174  A    between atoms: _415  and  _416
REMARK  175  A    between atoms: _418  and  _420
REMARK  176  A    between atoms: _420  and  _421
REMARK  177  A    between atoms: _420  and  _423
REMARK  178  A    between atoms: _423  and  _424
REMARK  179  A    between atoms: _427  and  _429
REMARK  180  A    between atoms: _429  and  _430
REMARK  181  A    between atoms: _432  and  _434
REMARK  182  A    between atoms: _434  and  _435
REMARK  183  A    between atoms: _437  and  _439
REMARK  184  A    between atoms: _439  and  _440
REMARK  185  A    between atoms: _439  and  _442
REMARK  186  A    between atoms: _442  and  _443
REMARK  187  A    between atoms: _449  and  _451
REMARK  188  A    between atoms: _451  and  _452
REMARK  189  A    between atoms: _451  and  _454
REMARK  190  A    between atoms: _454  and  _455
REMARK  191  A    between atoms: _458  and  _460
REMARK  192  A    between atoms: _460  and  _461
REMARK  193  A    between atoms: _460  and  _463
REMARK  194  A    between atoms: _466  and  _468
REMARK  195  A    between atoms: _468  and  _469
REMARK  196  A    between atoms: _468  and  _471
REMARK  197  A    between atoms: _471  and  _472
REMARK  198  A    between atoms: _475  and  _477
REMARK  199  A    between atoms: _477  and  _478
REMARK  200  A    between atoms: _477  and  _480
REMARK  201  A    between atoms: _480  and  _481
REMARK  202  A    between atoms: _485  and  _486
REMARK  203  A    between atoms: _491  and  _493
REMARK  204  A    between atoms: _493  and  _494
REMARK  205  A    between atoms: _493  and  _496
REMARK  206  A    between atoms: _496  and  _497
REMARK  207  A    between atoms: _500  and  _502
REMARK  208  A    between atoms: _502  and  _503
REMARK  209  A    between atoms: _502  and  _505
REMARK  210  A    between atoms: _505  and  _506
REMARK  211  A    between atoms: _511  and  _513
REMARK  212  A    between atoms: _513  and  _514
REMARK  213  A    between atoms: _513  and  _516
REMARK  214  A    between atoms: _519  and  _521
REMARK  215  A    between atoms: _521  and  _522
REMARK  216  A    between atoms: _521  and  _524
REMARK  217  A    between atoms: _524  and  _525
REMARK  218  A    between atoms: _528  and  _530
REMARK  219  A    between atoms: _530  and  _531
REMARK  220  A    between atoms: _533  and  _535
REMARK  221  A    between atoms: _535  and  _536
REMARK  222  A    between atoms: _535  and  _538
REMARK  223  A    between atoms: _538  and  _539
REMARK  224  A    between atoms: _539  and  _540
REMARK  225  A    between atoms: _540  and  _541
REMARK  226  A    between atoms: _550  and  _552
REMARK  227  A    between atoms: _552  and  _553
REMARK  228  A    between atoms: _552  and  _555
REMARK  229  A    between atoms: _555  and  _556
REMARK                            x       y       z     vdW  Elec       q    Type
REMARK                         _______ _______ _______ _____ _____    ______ ____
ROOT
ATOM      1  C   VAL A   5      -3.619   0.533  17.942  0.00  0.00    +0.241 C 
ATOM      2  N   ILE A   6      -3.435   1.260  19.040  0.00  0.00    -0.297 N 
ATOM      3  H   ILE A   6      -2.909   0.852  19.839  0.00  0.00    +0.150 HD
ATOM      4  O   VAL A   5      -4.261   0.939  16.972  0.00  0.00    -0.273 OA
ENDROOT
BRANCH   1   5
ATOM      5  CA  VAL A   5      -2.994  -0.861  17.937  0.00  0.00    +0.149 C 
BRANCH   5   8
ATOM      6  C   ASN A   4      -4.103  -2.968  18.450  0.00  0.00    +0.241 C 
ATOM      7  O   ASN A   4      -3.470  -3.109  19.501  0.00  0.00    -0.273 OA
ATOM      8  N   VAL A   5      -3.952  -1.920  17.646  0.00  0.00    -0.297 N 
ATOM      9  H   VAL A   5      -4.533  -1.854  16.786  0.00  0.00    +0.150 HD
BRANCH   6  10
ATOM     10  CA  ASN A   4      -5.122  -4.019  18.005  0.00  0.00    +0.158 C 
BRANCH  10  12
ATOM     11  C   THR A   3      -3.577  -5.745  17.288  0.00  0.00    +0.243 C 
ATOM     12  N   ASN A   4      -4.527  -5.343  18.120  0.00  0.00    -0.297 N 
ATOM     13  H   ASN A   4      -4.854  -5.986  18.870  0.00  0.00    +0.150 HD
ATOM     14  O   THR A   3      -3.159  -5.042  16.373  0.00  0.00    -0.273 OA
BRANCH  11  15
ATOM     15  CA  THR A   3      -3.022  -7.153  17.518  0.00  0.00    +0.176 C 
BRANCH  15  18
ATOM     16  C   PRO A   2      -2.298  -9.005  16.132  0.00  0.00    +0.241 C 
ATOM     17  O   PRO A   2      -2.668  -9.845  16.955  0.00  0.00    -0.273 OA
ATOM     18  N   THR A   3      -2.447  -7.695  16.302  0.00  0.00    -0.295 N 
ATOM     19  H   THR A   3      -2.145  -7.046  15.548  0.00  0.00    +0.150 HD
BRANCH  16  22
ATOM     20  C   THR A   1      -2.934  -8.090  13.209  0.00  0.00    +0.244 C 
ATOM     21  N   PRO A   2      -1.764  -8.451  13.753  0.00  0.00    -0.272 N 
ATOM     22  CA  PRO A   2      -1.635  -9.430  14.838  0.00  0.00    +0.152 C 
ATOM     23  CB  PRO A   2      -0.123  -9.556  15.013  0.00  0.00    +0.031 C 
ATOM     24  CG  PRO A   2       0.412  -9.182  13.666  0.00  0.00    +0.024 C 
ATOM     25  CD  PRO A   2      -0.432  -7.991  13.329  0.00  0.00    +0.094 C 
ATOM     26  O   THR A   1      -4.001  -8.574  13.591  0.00  0.00    -0.273 OA
BRANCH  20  27
ATOM     27  CA  THR A   1      -2.901  -7.058  12.076  0.00  0.00    +0.172 C 
BRANCH  27  28
ATOM     28  CB  THR A   1      -3.104  -5.627  12.649  0.00  0.00    +0.135 C 
ATOM     29  CG2 THR A   1      -4.501  -5.467  13.244  0.00  0.00    +0.034 C 
BRANCH  28  30
ATOM     30  OG1 THR A   1      -2.120  -5.374  13.660  0.00  0.00    -0.383 OA
ATOM     31  HG1 THR A   1      -2.217  -6.039  14.387  0.00  0.00    +0.210 HD
ENDBRANCH  28  30
ENDBRANCH  27  28
BRANCH  27  32
ATOM     32  N   THR A   1      -3.964  -7.410  11.142  0.00  0.00    -0.236 NA
ATOM     33  H   THR A   1      -4.952  -7.343  11.460  0.00  0.00    +0.142 HD
ENDBRANCH  27  32
ENDBRANCH  20  27
ENDBRANCH  16  22
ENDBRANCH  15  18
BRANCH  15  34
ATOM     34  CB  THR A   3      -1.938  -7.115  18.621  0.00  0.00    +0.137 C 
ATOM     35  CG2 THR A   3      -0.754  -6.251  18.174  0.00  0.00    +0.034 C 
BRANCH  34  36
ATOM     36  OG1 THR A   3      -2.491  -6.592  19.834  0.00  0.00    -0.382 OA
ATOM     37  HG1 THR A   3      -1.790  -6.572  20.533  0.00  0.00    +0.210 HD
ENDBRANCH  34  36
ENDBRANCH  15  34
ENDBRANCH  11  15
ENDBRANCH  10  12
BRANCH  10  38
ATOM     38  CB  ASN A   4      -6.382  -3.942  18.865  0.00  0.00    +0.114 C 
BRANCH  38  39
ATOM     39  CG  ASN A   4      -7.405  -4.995  18.485  0.00  0.00    +0.222 C 
ATOM     40  ND2 ASN A   4      -7.909  -5.723  19.478  0.00  0.00    -0.329 N 
ATOM     41 HD21 ASN A   4      -7.595  -5.558  20.455  0.00  0.00    +0.145 HD
ATOM     42 HD22 ASN A   4      -8.617  -6.458  19.277  0.00  0.00    +0.145 HD
ATOM     43  OD1 ASN A   4      -7.741  -5.148  17.307  0.00  0.00    -0.275 OA
ENDBRANCH  38  39
ENDBRANCH  10  38
ENDBRANCH   6  10
ENDBRANCH   5   8
BRANCH   5  44
ATOM     44  CB  VAL A   5      -1.838  -0.886  16.901  0.00  0.00    +0.027 C 
ATOM     45  CG2 VAL A   5      -1.018  -2.163  17.068  0.00  0.00    +0.002 C 
ATOM     46  CG1 VAL A   5      -0.951   0.334  17.061  0.00  0.00    +0.002 C 
ENDBRANCH   5  44
ENDBRANCH   1   5
BRANCH   2  47
ATOM     47  CA  ILE A   6      -3.954   2.615  19.146  0.00  0.00    +0.149 C 
BRANCH  47  48
ATOM     48  C   ILE A   6      -2.742   3.483  18.818  0.00  0.00    +0.241 C 
ATOM     49  O   ILE A   6      -1.755   3.481  19.557  0.00  0.00    -0.273 OA
ATOM     50  N   GLY A   7      -2.813   4.209  17.706  0.00  0.00    -0.295 N 
ATOM     51  H   GLY A   7      -3.677   4.178  17.128  0.00  0.00    +0.150 HD
BRANCH  50  52
ATOM     52  CA  GLY A   7      -1.700   5.045  17.288  0.00  0.00    +0.176 C 
BRANCH  52  53
ATOM     53  C   GLY A   7      -1.746   6.477  17.781  0.00  0.00    +0.243 C 
ATOM     54  O   GLY A   7      -2.602   6.838  18.593  0.00  0.00    -0.273 OA
ATOM     55  N   ARG A   8      -0.826   7.296  17.270  0.00  0.00    -0.297 N 
ATOM     56  H   ARG A   8      -0.161   6.924  16.562  0.00  0.00    +0.150 HD
BRANCH  55  57
ATOM     57  CA  ARG A   8      -0.719   8.695  17.670  0.00  0.00    +0.149 C 
BRANCH  57  58
ATOM     58  C   ARG A   8      -1.932   9.549  17.329  0.00  0.00    +0.241 C 
ATOM     59  O   ARG A   8      -2.198  10.539  18.005  0.00  0.00    -0.273 OA
ATOM     60  N   ASN A   9      -2.668   9.180  16.288  0.00  0.00    -0.298 N 
ATOM     61  H   ASN A   9      -2.408   8.338  15.735  0.00  0.00    +0.150 HD
BRANCH  60  62
ATOM     62  CA  ASN A   9      -3.837   9.957  15.926  0.00  0.00    +0.146 C 
BRANCH  62  63
ATOM     63  C   ASN A   9      -4.855   9.987  17.081  0.00  0.00    +0.227 C 
ATOM     64  O   ASN A   9      -5.498  11.014  17.327  0.00  0.00    -0.286 OA
ENDBRANCH  62  63
BRANCH  62  65
ATOM     65  CB  ASN A   9      -4.459   9.411  14.629  0.00  0.00    +0.112 C 
BRANCH  65  66
ATOM     66  CG  ASN A   9      -5.090   8.037  14.797  0.00  0.00    +0.222 C 
ATOM     67  OD1 ASN A   9      -4.458   7.101  15.288  0.00  0.00    -0.275 OA
ATOM     68  ND2 ASN A   9      -6.346   7.909  14.369  0.00  0.00    -0.329 N 
ATOM     69 HD21 ASN A   9      -6.830   6.991  14.443  0.00  0.00    +0.145 HD
ATOM     70 HD22 ASN A   9      -6.842   8.727  13.961  0.00  0.00    +0.145 HD
ENDBRANCH  65  66
ENDBRANCH  62  65
ENDBRANCH  60  62
ENDBRANCH  57  58
BRANCH  57  71
ATOM     71  CB  ARG A   8       0.545   9.331  17.069  0.00  0.00    +0.033 C 
BRANCH  71  72
ATOM     72  CG  ARG A   8       1.831   8.823  17.695  0.00  0.00    +0.045 C 
BRANCH  72  73
ATOM     73  CD  ARG A   8       3.077   9.541  17.170  0.00  0.00    +0.174 C 
BRANCH  73  74
ATOM     74  NE  ARG A   8       3.164   9.544  15.711  0.00  0.00    -0.265 N 
ATOM     75  HE  ARG A   8       3.532   8.691  15.243  0.00  0.00    +0.259 HD
ATOM     76  CZ  ARG A   8       2.802  10.569  14.943  0.00  0.00    +0.342 C 
ATOM     77  NH2 ARG A   8       2.326  11.682  15.490  0.00  0.00    -0.292 N 
ATOM     78 HH21 ARG A   8       2.235  11.756  16.523  0.00  0.00    +0.255 HD
ATOM     79 HH22 ARG A   8       2.045  12.480  14.885  0.00  0.00    +0.255 HD
ATOM     80  NH1 ARG A   8       2.927  10.485  13.628  0.00  0.00    -0.292 N 
ATOM     81 HH11 ARG A   8       3.308   9.619  13.196  0.00  0.00    +0.255 HD
ATOM     82 HH12 ARG A   8       2.645  11.285  13.027  0.00  0.00    +0.255 HD
ENDBRANCH  73  74
ENDBRANCH  72  73
ENDBRANCH  71  72
ENDBRANCH  57  71
ENDBRANCH  55  57
ENDBRANCH  52  53
ENDBRANCH  50  52
ENDBRANCH  47  48
BRANCH  47  83
ATOM     83  CB  ILE A   6      -4.425   2.933  20.573  0.00  0.00    +0.027 C 
ATOM     84  CG2 ILE A   6      -4.962   4.353  20.638  0.00  0.00    +0.002 C 
BRANCH  83  85
ATOM     85  CG1 ILE A   6      -5.483   1.919  21.009  0.00  0.00    +0.002 C 
ATOM     86  CD1 ILE A   6      -6.723   1.916  20.142  0.00  0.00    +0.000 C 
ENDBRANCH  83  85
ENDBRANCH  47  83
ENDBRANCH   2  47
TORSDOF 32
REMARK  Name = ../refined-set-2016/1k6p/1k6p_pocket.pdb
REMARK  229 active torsions:
REMARK  status: ('A' for Active; 'I' for Inactive)
REMARK    1  A    between atoms: _1  and  _3
REMARK    2  A    between atoms: _3  and  _4
REMARK    3  A    between atoms: _3  and  _6
REMARK    4  A    between atoms: _6  and  _7
REMARK    5  A    between atoms: _7  and  _8
REMARK    6  A    between atoms: _8  and  _9
REMARK    7  A    between atoms: _18  and  _20
REMARK    8  A    between atoms: _20  and  _21
REMARK    9  A    between atoms: _20  and  _23
REMARK   10  A    between atoms: _23  and  _24
REMARK   11  A    between atoms: _27  and  _29
REMARK   12  A    between atoms: _29  and  _30
REMARK   13  A    between atoms: _29  and  _32
REMARK   14  A    between atoms: _32  and  _33
REMARK   15  A    between atoms: _36  and  _38
REMARK   16  A    between atoms: _38  and  _39
REMARK   17  A    between atoms: _38  and  _41
REMARK   18  A    between atoms: _41  and  _42
REMARK   19  A    between atoms: _45  and  _47
REMARK   20  A    between atoms: _47  and  _48
REMARK   21  A    between atoms: _47  and  _50
REMARK   22  A    between atoms: _50  and  _51
REMARK   23  A    between atoms: _54  and  _56
REMARK   24  A    between atoms: _56  and  _57
REMARK   25  A    between atoms: _56  and  _59
REMARK   26  A    between atoms: _59  and  _60
REMARK   27  A    between atoms: _63  and  _65
REMARK   28  A    between atoms: _65  and  _66
REMARK   29  A    between atoms: _68  and  _70
REMARK   30  A    between atoms: _70  and  _71
REMARK   31  A    between atoms: _74  and  _76
REMARK   32  A    between atoms: _76  and  _77
REMARK   33  A    between atoms: _76  and  _79
REMARK   34  A    between atoms: _79  and  _80
REMARK   35  A    between atoms: _83  and  _85
REMARK   36  A    between atoms: _85  and  _86
REMARK   37  A    between atoms: _85  and  _88
REMARK   38  A    between atoms: _88  and  _89
REMARK   39  A    between atoms: _92  and  _94
REMARK   40  A    between atoms: _94  and  _95
REMARK   41  A    between atoms: _94  and  _97
REMARK   42  A    between atoms: _97  and  _98
REMARK   43  A    between atoms: _101  and  _103
REMARK   44  A    between atoms: _103  and  _104
REMARK   45  A    between atoms: _103  and  _106
REMARK   46  A    between atoms: _109  and  _111
REMARK   47  A    between atoms: _111  and  _112
REMARK   48  A    between atoms: _111  and  _114
REMARK   49  A    between atoms: _114  and  _115
REMARK   50  A    between atoms: _115  and  _116
REMARK   51  A    between atoms: _118  and  _120
REMARK   52  A    between atoms: _120  and  _121
REMARK   53  A    between atoms: _120  and  _123
REMARK   54  A    between atoms: _123  and  _124
REMARK   55  A    between atoms: _127  and  _129
REMARK   56  A    between atoms: _129  and  _130
REMARK   57  A    between atoms: _132  and  _134
REMARK   58  A    between atoms: _134  and  _135
REMARK   59  A    between atoms: _137  and  _139
REMARK   60  A    between atoms: _139  and  _140
REMARK   61  A    between atoms: _139  and  _142
REMARK   62  A    between atoms: _142  and  _143
REMARK   63  A    between atoms: _146  and  _148
REMARK   64  A    between atoms: _148  and  _149
REMARK   65  A    between atoms: _151  and  _153
REMARK   66  A    between atoms: _153  and  _154
REMARK   67  A    between atoms: _156  and  _158
REMARK   68  A    between atoms: _158  and  _159
REMARK   69  A    between atoms: _158  and  _161
REMARK   70  A    between atoms: _161  and  _162
REMARK   71  A    between atoms: _168  and  _170
REMARK   72  A    between atoms: _170  and  _171
REMARK   73  A    between atoms: _170  and  _173
REMARK   74  A    between atoms: _173  and  _174
REMARK   75  A    between atoms: _177  and  _179
REMARK   76  A    between atoms: _179  and  _180
REMARK   77  A    between atoms: _179  and  _182
REMARK   78  A    between atoms: _185  and  _187
REMARK   79  A    between atoms: _187  and  _188
REMARK   80  A    between atoms: _187  and  _190
REMARK   81  A    between atoms: _190  and  _191
REMARK   82  A    between atoms: _194  and  _196
REMARK   83  A    between atoms: _196  and  _197
REMARK   84  A    between atoms: _196  and  _199
REMARK   85  A    between atoms: _199  and  _200
REMARK   86  A    between atoms: _204  and  _205
REMARK   87  A    between atoms: _210  and  _212
REMARK   88  A    between atoms: _212  and  _213
REMARK   89  A    between atoms: _212  and  _215
REMARK   90  A    between atoms: _215  and  _216
REMARK   91  A    between atoms: _219  and  _221
REMARK   92  A    between atoms: _221  and  _222
REMARK   93  A    between atoms: _221  and  _224
REMARK   94  A    between atoms: _224  and  _225
REMARK   95  A    between atoms: _230  and  _232
REMARK   96  A    between atoms: _232  and  _233
REMARK   97  A    between atoms: _232  and  _235
REMARK   98  A    between atoms: _238  and  _240
REMARK   99  A    between atoms: _240  and  _241
REMARK  100  A    between atoms: _240  and  _243
REMARK  101  A    between atoms: _243  and  _244
REMARK  102  A    between atoms: _247  and  _249
REMARK  103  A    between atoms: _249  and  _250
REMARK  104  A    between atoms: _252  and  _254
REMARK  105  A    between atoms: _254  and  _255
REMARK  106  A    between atoms: _254  and  _257
REMARK  107  A    between atoms: _257  and  _258
REMARK  108  A    between atoms: _258  and  _259
REMARK  109  A    between atoms: _259  and  _260
REMARK  110  A    between atoms: _269  and  _271
REMARK  111  A    between atoms: _271  and  _272
REMARK  112  A    between atoms: _271  and  _274
REMARK  113  A    between atoms: _274  and  _275
REMARK  114  A    between atoms: _275  and  _276
REMARK  115  A    between atoms: _276  and  _277
REMARK  116  A    between atoms: _286  and  _288
REMARK  117  A    between atoms: _288  and  _289
REMARK  118  A    between atoms: _288  and  _291
REMARK  119  A    between atoms: _291  and  _292
REMARK  120  A    between atoms: _295  and  _297
REMARK  121  A    between atoms: _297  and  _298
REMARK  122  A    between atoms: _297  and  _300
REMARK  123  A    between atoms: _300  and  _301
REMARK  124  A    between atoms: _304  and  _306
REMARK  125  A    between atoms: _306  and  _307
REMARK  126  A    between atoms: _306  and  _309
REMARK  127  A    between atoms: _309  and  _310
REMARK  128  A    between atoms: _313  and  _315
REMARK  129  A    between atoms: _315  and  _316
REMARK  130  A    between atoms: _315  and  _318
REMARK  131  A    between atoms: _318  and  _319
REMARK  132  A    between atoms: _322  and  _324
REMARK  133  A    between atoms: _324  and  _325
REMARK  134  A    between atoms: _327  and  _329
REMARK  135  A    between atoms: _329  and  _330
REMARK  136  A    between atoms: _333  and  _335
REMARK  137  A    between atoms: _335  and  _336
REMARK  138  A    between atoms: _335  and  _338
REMARK  139  A    between atoms: _338  and  _339
REMARK  140  A    between atoms: _342  and  _344
REMARK  141  A    between atoms: _344  and  _345
REMARK  142  A    between atoms: _344  and  _347
REMARK  143  A    between atoms: _347  and  _348
REMARK  144  A    between atoms: _351  and  _353
REMARK  145  A    between atoms: _353  and  _354
REMARK  146  A    between atoms: _353  and  _356
REMARK  147  A    between atoms: _356  and  _357
REMARK  148  A    between atoms: _360  and  _362
REMARK  149  A    between atoms: _362  and  _363
REMARK  150  A    between atoms: _362  and  _365
REMARK  151  A    between atoms: _368  and  _370
REMARK  152  A    between atoms: _370  and  _371
REMARK  153  A    between atoms: _370  and  _373
REMARK  154  A    between atoms: _373  and  _374
REMARK  155  A    between atoms: _377  and  _379
REMARK  156  A    between atoms: _379  and  _380
REMARK  157  A    between atoms: _379  and  _382
REMARK  158  A    between atoms: _382  and  _383
REMARK  159  A    between atoms: _383  and  _384
REMARK  160  A    between atoms: _384  and  _385
REMARK  161  A    between atoms: _385  and  _386
REMARK  162  A    between atoms: _390  and  _392
REMARK  163  A    between atoms: _392  and  _393
REMARK  164  A    between atoms: _392  and  _395
REMARK  165  A    between atoms: _395  and  _396
REMARK  166  A    between atoms: _396  and  _397
REMARK  167  A    between atoms: _399  and  _401
REMARK  168  A    between atoms: _401  and  _402
REMARK  169  A    between atoms: _401  and  _404
REMARK  170  A    between atoms: _404  and  _405
REMARK  171  A    between atoms: _408  and  _410
REMARK  172  A    between atoms: _410  and  _411
REMARK  173  A    between atoms: _413  and  _415
REMARK  174  A    between atoms: _415  and  _416
REMARK  175  A    between atoms: _418  and  _420
REMARK  176  A    between atoms: _420  and  _421
REMARK  177  A    between atoms: _420  and  _423
REMARK  178  A    between atoms: _423  and  _424
REMARK  179  A    between atoms: _427  and  _429
REMARK  180  A    between atoms: _429  and  _430
REMARK  181  A    between atoms: _432  and  _434
REMARK  182  A    between atoms: _434  and  _435
REMARK  183  A    between atoms: _437  and  _439
REMARK  184  A    between atoms: _439  and  _440
REMARK  185  A    between atoms: _439  and  _442
REMARK  186  A    between atoms: _442  and  _443
REMARK  187  A    between atoms: _449  and  _451
REMARK  188  A    between atoms: _451  and  _452
REMARK  189  A    between atoms: _451  and  _454
REMARK  190  A    between atoms: _454  and  _455
REMARK  191  A    between atoms: _458  and  _460
REMARK  192  A    between atoms: _460  and  _461
REMARK  193  A    between atoms: _460  and  _463
REMARK  194  A    between atoms: _466  and  _468
REMARK  195  A    between atoms: _468  and  _469
REMARK  196  A    between atoms: _468  and  _471
REMARK  197  A    between atoms: _471  and  _472
REMARK  198  A    between atoms: _475  and  _477
REMARK  199  A    between atoms: _477  and  _478
REMARK  200  A    between atoms: _477  and  _480
REMARK  201  A    between atoms: _480  and  _481
REMARK  202  A    between atoms: _485  and  _486
REMARK  203  A    between atoms: _491  and  _493
REMARK  204  A    between atoms: _493  and  _494
REMARK  205  A    between atoms: _493  and  _496
REMARK  206  A    between atoms: _496  and  _497
REMARK  207  A    between atoms: _500  and  _502
REMARK  208  A    between atoms: _502  and  _503
REMARK  209  A    between atoms: _502  and  _505
REMARK  210  A    between atoms: _505  and  _506
REMARK  211  A    between atoms: _511  and  _513
REMARK  212  A    between atoms: _513  and  _514
REMARK  213  A    between atoms: _513  and  _516
REMARK  214  A    between atoms: _519  and  _521
REMARK  215  A    between atoms: _521  and  _522
REMARK  216  A    between atoms: _521  and  _524
REMARK  217  A    between atoms: _524  and  _525
REMARK  218  A    between atoms: _528  and  _530
REMARK  219  A    between atoms: _530  and  _531
REMARK  220  A    between atoms: _533  and  _535
REMARK  221  A    between atoms: _535  and  _536
REMARK  222  A    between atoms: _535  and  _538
REMARK  223  A    between atoms: _538  and  _539
REMARK  224  A    between atoms: _539  and  _540
REMARK  225  A    between atoms: _540  and  _541
REMARK  226  A    between atoms: _550  and  _552
REMARK  227  A    between atoms: _552  and  _553
REMARK  228  A    between atoms: _552  and  _555
REMARK  229  A    between atoms: _555  and  _556
REMARK                            x       y       z     vdW  Elec       q    Type
REMARK                         _______ _______ _______ _____ _____    ______ ____
ROOT
ATOM      1  O   HOH     1      11.117   9.790   7.306  0.00  0.00    +0.000 OA
ENDROOT
TORSDOF 0
REMARK  Name = ../refined-set-2016/1k6p/1k6p_pocket.pdb
REMARK  229 active torsions:
REMARK  status: ('A' for Active; 'I' for Inactive)
REMARK    1  A    between atoms: _1  and  _3
REMARK    2  A    between atoms: _3  and  _4
REMARK    3  A    between atoms: _3  and  _6
REMARK    4  A    between atoms: _6  and  _7
REMARK    5  A    between atoms: _7  and  _8
REMARK    6  A    between atoms: _8  and  _9
REMARK    7  A    between atoms: _18  and  _20
REMARK    8  A    between atoms: _20  and  _21
REMARK    9  A    between atoms: _20  and  _23
REMARK   10  A    between atoms: _23  and  _24
REMARK   11  A    between atoms: _27  and  _29
REMARK   12  A    between atoms: _29  and  _30
REMARK   13  A    between atoms: _29  and  _32
REMARK   14  A    between atoms: _32  and  _33
REMARK   15  A    between atoms: _36  and  _38
REMARK   16  A    between atoms: _38  and  _39
REMARK   17  A    between atoms: _38  and  _41
REMARK   18  A    between atoms: _41  and  _42
REMARK   19  A    between atoms: _45  and  _47
REMARK   20  A    between atoms: _47  and  _48
REMARK   21  A    between atoms: _47  and  _50
REMARK   22  A    between atoms: _50  and  _51
REMARK   23  A    between atoms: _54  and  _56
REMARK   24  A    between atoms: _56  and  _57
REMARK   25  A    between atoms: _56  and  _59
REMARK   26  A    between atoms: _59  and  _60
REMARK   27  A    between atoms: _63  and  _65
REMARK   28  A    between atoms: _65  and  _66
REMARK   29  A    between atoms: _68  and  _70
REMARK   30  A    between atoms: _70  and  _71
REMARK   31  A    between atoms: _74  and  _76
REMARK   32  A    between atoms: _76  and  _77
REMARK   33  A    between atoms: _76  and  _79
REMARK   34  A    between atoms: _79  and  _80
REMARK   35  A    between atoms: _83  and  _85
REMARK   36  A    between atoms: _85  and  _86
REMARK   37  A    between atoms: _85  and  _88
REMARK   38  A    between atoms: _88  and  _89
REMARK   39  A    between atoms: _92  and  _94
REMARK   40  A    between atoms: _94  and  _95
REMARK   41  A    between atoms: _94  and  _97
REMARK   42  A    between atoms: _97  and  _98
REMARK   43  A    between atoms: _101  and  _103
REMARK   44  A    between atoms: _103  and  _104
REMARK   45  A    between atoms: _103  and  _106
REMARK   46  A    between atoms: _109  and  _111
REMARK   47  A    between atoms: _111  and  _112
REMARK   48  A    between atoms: _111  and  _114
REMARK   49  A    between atoms: _114  and  _115
REMARK   50  A    between atoms: _115  and  _116
REMARK   51  A    between atoms: _118  and  _120
REMARK   52  A    between atoms: _120  and  _121
REMARK   53  A    between atoms: _120  and  _123
REMARK   54  A    between atoms: _123  and  _124
REMARK   55  A    between atoms: _127  and  _129
REMARK   56  A    between atoms: _129  and  _130
REMARK   57  A    between atoms: _132  and  _134
REMARK   58  A    between atoms: _134  and  _135
REMARK   59  A    between atoms: _137  and  _139
REMARK   60  A    between atoms: _139  and  _140
REMARK   61  A    between atoms: _139  and  _142
REMARK   62  A    between atoms: _142  and  _143
REMARK   63  A    between atoms: _146  and  _148
REMARK   64  A    between atoms: _148  and  _149
REMARK   65  A    between atoms: _151  and  _153
REMARK   66  A    between atoms: _153  and  _154
REMARK   67  A    between atoms: _156  and  _158
REMARK   68  A    between atoms: _158  and  _159
REMARK   69  A    between atoms: _158  and  _161
REMARK   70  A    between atoms: _161  and  _162
REMARK   71  A    between atoms: _168  and  _170
REMARK   72  A    between atoms: _170  and  _171
REMARK   73  A    between atoms: _170  and  _173
REMARK   74  A    between atoms: _173  and  _174
REMARK   75  A    between atoms: _177  and  _179
REMARK   76  A    between atoms: _179  and  _180
REMARK   77  A    between atoms: _179  and  _182
REMARK   78  A    between atoms: _185  and  _187
REMARK   79  A    between atoms: _187  and  _188
REMARK   80  A    between atoms: _187  and  _190
REMARK   81  A    between atoms: _190  and  _191
REMARK   82  A    between atoms: _194  and  _196
REMARK   83  A    between atoms: _196  and  _197
REMARK   84  A    between atoms: _196  and  _199
REMARK   85  A    between atoms: _199  and  _200
REMARK   86  A    between atoms: _204  and  _205
REMARK   87  A    between atoms: _210  and  _212
REMARK   88  A    between atoms: _212  and  _213
REMARK   89  A    between atoms: _212  and  _215
REMARK   90  A    between atoms: _215  and  _216
REMARK   91  A    between atoms: _219  and  _221
REMARK   92  A    between atoms: _221  and  _222
REMARK   93  A    between atoms: _221  and  _224
REMARK   94  A    between atoms: _224  and  _225
REMARK   95  A    between atoms: _230  and  _232
REMARK   96  A    between atoms: _232  and  _233
REMARK   97  A    between atoms: _232  and  _235
REMARK   98  A    between atoms: _238  and  _240
REMARK   99  A    between atoms: _240  and  _241
REMARK  100  A    between atoms: _240  and  _243
REMARK  101  A    between atoms: _243  and  _244
REMARK  102  A    between atoms: _247  and  _249
REMARK  103  A    between atoms: _249  and  _250
REMARK  104  A    between atoms: _252  and  _254
REMARK  105  A    between atoms: _254  and  _255
REMARK  106  A    between atoms: _254  and  _257
REMARK  107  A    between atoms: _257  and  _258
REMARK  108  A    between atoms: _258  and  _259
REMARK  109  A    between atoms: _259  and  _260
REMARK  110  A    between atoms: _269  and  _271
REMARK  111  A    between atoms: _271  and  _272
REMARK  112  A    between atoms: _271  and  _274
REMARK  113  A    between atoms: _274  and  _275
REMARK  114  A    between atoms: _275  and  _276
REMARK  115  A    between atoms: _276  and  _277
REMARK  116  A    between atoms: _286  and  _288
REMARK  117  A    between atoms: _288  and  _289
REMARK  118  A    between atoms: _288  and  _291
REMARK  119  A    between atoms: _291  and  _292
REMARK  120  A    between atoms: _295  and  _297
REMARK  121  A    between atoms: _297  and  _298
REMARK  122  A    between atoms: _297  and  _300
REMARK  123  A    between atoms: _300  and  _301
REMARK  124  A    between atoms: _304  and  _306
REMARK  125  A    between atoms: _306  and  _307
REMARK  126  A    between atoms: _306  and  _309
REMARK  127  A    between atoms: _309  and  _310
REMARK  128  A    between atoms: _313  and  _315
REMARK  129  A    between atoms: _315  and  _316
REMARK  130  A    between atoms: _315  and  _318
REMARK  131  A    between atoms: _318  and  _319
REMARK  132  A    between atoms: _322  and  _324
REMARK  133  A    between atoms: _324  and  _325
REMARK  134  A    between atoms: _327  and  _329
REMARK  135  A    between atoms: _329  and  _330
REMARK  136  A    between atoms: _333  and  _335
REMARK  137  A    between atoms: _335  and  _336
REMARK  138  A    between atoms: _335  and  _338
REMARK  139  A    between atoms: _338  and  _339
REMARK  140  A    between atoms: _342  and  _344
REMARK  141  A    between atoms: _344  and  _345
REMARK  142  A    between atoms: _344  and  _347
REMARK  143  A    between atoms: _347  and  _348
REMARK  144  A    between atoms: _351  and  _353
REMARK  145  A    between atoms: _353  and  _354
REMARK  146  A    between atoms: _353  and  _356
REMARK  147  A    between atoms: _356  and  _357
REMARK  148  A    between atoms: _360  and  _362
REMARK  149  A    between atoms: _362  and  _363
REMARK  150  A    between atoms: _362  and  _365
REMARK  151  A    between atoms: _368  and  _370
REMARK  152  A    between atoms: _370  and  _371
REMARK  153  A    between atoms: _370  and  _373
REMARK  154  A    between atoms: _373  and  _374
REMARK  155  A    between atoms: _377  and  _379
REMARK  156  A    between atoms: _379  and  _380
REMARK  157  A    between atoms: _379  and  _382
REMARK  158  A    between atoms: _382  and  _383
REMARK  159  A    between atoms: _383  and  _384
REMARK  160  A    between atoms: _384  and  _385
REMARK  161  A    between atoms: _385  and  _386
REMARK  162  A    between atoms: _390  and  _392
REMARK  163  A    between atoms: _392  and  _393
REMARK  164  A    between atoms: _392  and  _395
REMARK  165  A    between atoms: _395  and  _396
REMARK  166  A    between atoms: _396  and  _397
REMARK  167  A    between atoms: _399  and  _401
REMARK  168  A    between atoms: _401  and  _402
REMARK  169  A    between atoms: _401  and  _404
REMARK  170  A    between atoms: _404  and  _405
REMARK  171  A    between atoms: _408  and  _410
REMARK  172  A    between atoms: _410  and  _411
REMARK  173  A    between atoms: _413  and  _415
REMARK  174  A    between atoms: _415  and  _416
REMARK  175  A    between atoms: _418  and  _420
REMARK  176  A    between atoms: _420  and  _421
REMARK  177  A    between atoms: _420  and  _423
REMARK  178  A    between atoms: _423  and  _424
REMARK  179  A    between atoms: _427  and  _429
REMARK  180  A    between atoms: _429  and  _430
REMARK  181  A    between atoms: _432  and  _434
REMARK  182  A    between atoms: _434  and  _435
REMARK  183  A    between atoms: _437  and  _439
REMARK  184  A    between atoms: _439  and  _440
REMARK  185  A    between atoms: _439  and  _442
REMARK  186  A    between atoms: _442  and  _443
REMARK  187  A    between atoms: _449  and  _451
REMARK  188  A    between atoms: _451  and  _452
REMARK  189  A    between atoms: _451  and  _454
REMARK  190  A    between atoms: _454  and  _455
REMARK  191  A    between atoms: _458  and  _460
REMARK  192  A    between atoms: _460  and  _461
REMARK  193  A    between atoms: _460  and  _463
REMARK  194  A    between atoms: _466  and  _468
REMARK  195  A    between atoms: _468  and  _469
REMARK  196  A    between atoms: _468  and  _471
REMARK  197  A    between atoms: _471  and  _472
REMARK  198  A    between atoms: _475  and  _477
REMARK  199  A    between atoms: _477  and  _478
REMARK  200  A    between atoms: _477  and  _480
REMARK  201  A    between atoms: _480  and  _481
REMARK  202  A    between atoms: _485  and  _486
REMARK  203  A    between atoms: _491  and  _493
REMARK  204  A    between atoms: _493  and  _494
REMARK  205  A    between atoms: _493  and  _496
REMARK  206  A    between atoms: _496  and  _497
REMARK  207  A    between atoms: _500  and  _502
REMARK  208  A    between atoms: _502  and  _503
REMARK  209  A    between atoms: _502  and  _505
REMARK  210  A    between atoms: _505  and  _506
REMARK  211  A    between atoms: _511  and  _513
REMARK  212  A    between atoms: _513  and  _514
REMARK  213  A    between atoms: _513  and  _516
REMARK  214  A    between atoms: _519  and  _521
REMARK  215  A    between atoms: _521  and  _522
REMARK  216  A    between atoms: _521  and  _524
REMARK  217  A    between atoms: _524  and  _525
REMARK  218  A    between atoms: _528  and  _530
REMARK  219  A    between atoms: _530  and  _531
REMARK  220  A    between atoms: _533  and  _535
REMARK  221  A    between atoms: _535  and  _536
REMARK  222  A    between atoms: _535  and  _538
REMARK  223  A    between atoms: _538  and  _539
REMARK  224  A    between atoms: _539  and  _540
REMARK  225  A    between atoms: _540  and  _541
REMARK  226  A    between atoms: _550  and  _552
REMARK  227  A    between atoms: _552  and  _553
REMARK  228  A    between atoms: _552  and  _555
REMARK  229  A    between atoms: _555  and  _556
REMARK                            x       y       z     vdW  Elec       q    Type
REMARK                         _______ _______ _______ _____ _____    ______ ____
ROOT
ATOM      1  O   HOH     1       5.371  -3.530  23.371  0.00  0.00    +0.000 OA
ENDROOT
TORSDOF 0
REMARK  Name = ../refined-set-2016/1k6p/1k6p_pocket.pdb
REMARK  229 active torsions:
REMARK  status: ('A' for Active; 'I' for Inactive)
REMARK    1  A    between atoms: _1  and  _3
REMARK    2  A    between atoms: _3  and  _4
REMARK    3  A    between atoms: _3  and  _6
REMARK    4  A    between atoms: _6  and  _7
REMARK    5  A    between atoms: _7  and  _8
REMARK    6  A    between atoms: _8  and  _9
REMARK    7  A    between atoms: _18  and  _20
REMARK    8  A    between atoms: _20  and  _21
REMARK    9  A    between atoms: _20  and  _23
REMARK   10  A    between atoms: _23  and  _24
REMARK   11  A    between atoms: _27  and  _29
REMARK   12  A    between atoms: _29  and  _30
REMARK   13  A    between atoms: _29  and  _32
REMARK   14  A    between atoms: _32  and  _33
REMARK   15  A    between atoms: _36  and  _38
REMARK   16  A    between atoms: _38  and  _39
REMARK   17  A    between atoms: _38  and  _41
REMARK   18  A    between atoms: _41  and  _42
REMARK   19  A    between atoms: _45  and  _47
REMARK   20  A    between atoms: _47  and  _48
REMARK   21  A    between atoms: _47  and  _50
REMARK   22  A    between atoms: _50  and  _51
REMARK   23  A    between atoms: _54  and  _56
REMARK   24  A    between atoms: _56  and  _57
REMARK   25  A    between atoms: _56  and  _59
REMARK   26  A    between atoms: _59  and  _60
REMARK   27  A    between atoms: _63  and  _65
REMARK   28  A    between atoms: _65  and  _66
REMARK   29  A    between atoms: _68  and  _70
REMARK   30  A    between atoms: _70  and  _71
REMARK   31  A    between atoms: _74  and  _76
REMARK   32  A    between atoms: _76  and  _77
REMARK   33  A    between atoms: _76  and  _79
REMARK   34  A    between atoms: _79  and  _80
REMARK   35  A    between atoms: _83  and  _85
REMARK   36  A    between atoms: _85  and  _86
REMARK   37  A    between atoms: _85  and  _88
REMARK   38  A    between atoms: _88  and  _89
REMARK   39  A    between atoms: _92  and  _94
REMARK   40  A    between atoms: _94  and  _95
REMARK   41  A    between atoms: _94  and  _97
REMARK   42  A    between atoms: _97  and  _98
REMARK   43  A    between atoms: _101  and  _103
REMARK   44  A    between atoms: _103  and  _104
REMARK   45  A    between atoms: _103  and  _106
REMARK   46  A    between atoms: _109  and  _111
REMARK   47  A    between atoms: _111  and  _112
REMARK   48  A    between atoms: _111  and  _114
REMARK   49  A    between atoms: _114  and  _115
REMARK   50  A    between atoms: _115  and  _116
REMARK   51  A    between atoms: _118  and  _120
REMARK   52  A    between atoms: _120  and  _121
REMARK   53  A    between atoms: _120  and  _123
REMARK   54  A    between atoms: _123  and  _124
REMARK   55  A    between atoms: _127  and  _129
REMARK   56  A    between atoms: _129  and  _130
REMARK   57  A    between atoms: _132  and  _134
REMARK   58  A    between atoms: _134  and  _135
REMARK   59  A    between atoms: _137  and  _139
REMARK   60  A    between atoms: _139  and  _140
REMARK   61  A    between atoms: _139  and  _142
REMARK   62  A    between atoms: _142  and  _143
REMARK   63  A    between atoms: _146  and  _148
REMARK   64  A    between atoms: _148  and  _149
REMARK   65  A    between atoms: _151  and  _153
REMARK   66  A    between atoms: _153  and  _154
REMARK   67  A    between atoms: _156  and  _158
REMARK   68  A    between atoms: _158  and  _159
REMARK   69  A    between atoms: _158  and  _161
REMARK   70  A    between atoms: _161  and  _162
REMARK   71  A    between atoms: _168  and  _170
REMARK   72  A    between atoms: _170  and  _171
REMARK   73  A    between atoms: _170  and  _173
REMARK   74  A    between atoms: _173  and  _174
REMARK   75  A    between atoms: _177  and  _179
REMARK   76  A    between atoms: _179  and  _180
REMARK   77  A    between atoms: _179  and  _182
REMARK   78  A    between atoms: _185  and  _187
REMARK   79  A    between atoms: _187  and  _188
REMARK   80  A    between atoms: _187  and  _190
REMARK   81  A    between atoms: _190  and  _191
REMARK   82  A    between atoms: _194  and  _196
REMARK   83  A    between atoms: _196  and  _197
REMARK   84  A    between atoms: _196  and  _199
REMARK   85  A    between atoms: _199  and  _200
REMARK   86  A    between atoms: _204  and  _205
REMARK   87  A    between atoms: _210  and  _212
REMARK   88  A    between atoms: _212  and  _213
REMARK   89  A    between atoms: _212  and  _215
REMARK   90  A    between atoms: _215  and  _216
REMARK   91  A    between atoms: _219  and  _221
REMARK   92  A    between atoms: _221  and  _222
REMARK   93  A    between atoms: _221  and  _224
REMARK   94  A    between atoms: _224  and  _225
REMARK   95  A    between atoms: _230  and  _232
REMARK   96  A    between atoms: _232  and  _233
REMARK   97  A    between atoms: _232  and  _235
REMARK   98  A    between atoms: _238  and  _240
REMARK   99  A    between atoms: _240  and  _241
REMARK  100  A    between atoms: _240  and  _243
REMARK  101  A    between atoms: _243  and  _244
REMARK  102  A    between atoms: _247  and  _249
REMARK  103  A    between atoms: _249  and  _250
REMARK  104  A    between atoms: _252  and  _254
REMARK  105  A    between atoms: _254  and  _255
REMARK  106  A    between atoms: _254  and  _257
REMARK  107  A    between atoms: _257  and  _258
REMARK  108  A    between atoms: _258  and  _259
REMARK  109  A    between atoms: _259  and  _260
REMARK  110  A    between atoms: _269  and  _271
REMARK  111  A    between atoms: _271  and  _272
REMARK  112  A    between atoms: _271  and  _274
REMARK  113  A    between atoms: _274  and  _275
REMARK  114  A    between atoms: _275  and  _276
REMARK  115  A    between atoms: _276  and  _277
REMARK  116  A    between atoms: _286  and  _288
REMARK  117  A    between atoms: _288  and  _289
REMARK  118  A    between atoms: _288  and  _291
REMARK  119  A    between atoms: _291  and  _292
REMARK  120  A    between atoms: _295  and  _297
REMARK  121  A    between atoms: _297  and  _298
REMARK  122  A    between atoms: _297  and  _300
REMARK  123  A    between atoms: _300  and  _301
REMARK  124  A    between atoms: _304  and  _306
REMARK  125  A    between atoms: _306  and  _307
REMARK  126  A    between atoms: _306  and  _309
REMARK  127  A    between atoms: _309  and  _310
REMARK  128  A    between atoms: _313  and  _315
REMARK  129  A    between atoms: _315  and  _316
REMARK  130  A    between atoms: _315  and  _318
REMARK  131  A    between atoms: _318  and  _319
REMARK  132  A    between atoms: _322  and  _324
REMARK  133  A    between atoms: _324  and  _325
REMARK  134  A    between atoms: _327  and  _329
REMARK  135  A    between atoms: _329  and  _330
REMARK  136  A    between atoms: _333  and  _335
REMARK  137  A    between atoms: _335  and  _336
REMARK  138  A    between atoms: _335  and  _338
REMARK  139  A    between atoms: _338  and  _339
REMARK  140  A    between atoms: _342  and  _344
REMARK  141  A    between atoms: _344  and  _345
REMARK  142  A    between atoms: _344  and  _347
REMARK  143  A    between atoms: _347  and  _348
REMARK  144  A    between atoms: _351  and  _353
REMARK  145  A    between atoms: _353  and  _354
REMARK  146  A    between atoms: _353  and  _356
REMARK  147  A    between atoms: _356  and  _357
REMARK  148  A    between atoms: _360  and  _362
REMARK  149  A    between atoms: _362  and  _363
REMARK  150  A    between atoms: _362  and  _365
REMARK  151  A    between atoms: _368  and  _370
REMARK  152  A    between atoms: _370  and  _371
REMARK  153  A    between atoms: _370  and  _373
REMARK  154  A    between atoms: _373  and  _374
REMARK  155  A    between atoms: _377  and  _379
REMARK  156  A    between atoms: _379  and  _380
REMARK  157  A    between atoms: _379  and  _382
REMARK  158  A    between atoms: _382  and  _383
REMARK  159  A    between atoms: _383  and  _384
REMARK  160  A    between atoms: _384  and  _385
REMARK  161  A    between atoms: _385  and  _386
REMARK  162  A    between atoms: _390  and  _392
REMARK  163  A    between atoms: _392  and  _393
REMARK  164  A    between atoms: _392  and  _395
REMARK  165  A    between atoms: _395  and  _396
REMARK  166  A    between atoms: _396  and  _397
REMARK  167  A    between atoms: _399  and  _401
REMARK  168  A    between atoms: _401  and  _402
REMARK  169  A    between atoms: _401  and  _404
REMARK  170  A    between atoms: _404  and  _405
REMARK  171  A    between atoms: _408  and  _410
REMARK  172  A    between atoms: _410  and  _411
REMARK  173  A    between atoms: _413  and  _415
REMARK  174  A    between atoms: _415  and  _416
REMARK  175  A    between atoms: _418  and  _420
REMARK  176  A    between atoms: _420  and  _421
REMARK  177  A    between atoms: _420  and  _423
REMARK  178  A    between atoms: _423  and  _424
REMARK  179  A    between atoms: _427  and  _429
REMARK  180  A    between atoms: _429  and  _430
REMARK  181  A    between atoms: _432  and  _434
REMARK  182  A    between atoms: _434  and  _435
REMARK  183  A    between atoms: _437  and  _439
REMARK  184  A    between atoms: _439  and  _440
REMARK  185  A    between atoms: _439  and  _442
REMARK  186  A    between atoms: _442  and  _443
REMARK  187  A    between atoms: _449  and  _451
REMARK  188  A    between atoms: _451  and  _452
REMARK  189  A    between atoms: _451  and  _454
REMARK  190  A    between atoms: _454  and  _455
REMARK  191  A    between atoms: _458  and  _460
REMARK  192  A    between atoms: _460  and  _461
REMARK  193  A    between atoms: _460  and  _463
REMARK  194  A    between atoms: _466  and  _468
REMARK  195  A    between atoms: _468  and  _469
REMARK  196  A    between atoms: _468  and  _471
REMARK  197  A    between atoms: _471  and  _472
REMARK  198  A    between atoms: _475  and  _477
REMARK  199  A    between atoms: _477  and  _478
REMARK  200  A    between atoms: _477  and  _480
REMARK  201  A    between atoms: _480  and  _481
REMARK  202  A    between atoms: _485  and  _486
REMARK  203  A    between atoms: _491  and  _493
REMARK  204  A    between atoms: _493  and  _494
REMARK  205  A    between atoms: _493  and  _496
REMARK  206  A    between atoms: _496  and  _497
REMARK  207  A    between atoms: _500  and  _502
REMARK  208  A    between atoms: _502  and  _503
REMARK  209  A    between atoms: _502  and  _505
REMARK  210  A    between atoms: _505  and  _506
REMARK  211  A    between atoms: _511  and  _513
REMARK  212  A    between atoms: _513  and  _514
REMARK  213  A    between atoms: _513  and  _516
REMARK  214  A    between atoms: _519  and  _521
REMARK  215  A    between atoms: _521  and  _522
REMARK  216  A    between atoms: _521  and  _524
REMARK  217  A    between atoms: _524  and  _525
REMARK  218  A    between atoms: _528  and  _530
REMARK  219  A    between atoms: _530  and  _531
REMARK  220  A    between atoms: _533  and  _535
REMARK  221  A    between atoms: _535  and  _536
REMARK  222  A    between atoms: _535  and  _538
REMARK  223  A    between atoms: _538  and  _539
REMARK  224  A    between atoms: _539  and  _540
REMARK  225  A    between atoms: _540  and  _541
REMARK  226  A    between atoms: _550  and  _552
REMARK  227  A    between atoms: _552  and  _553
REMARK  228  A    between atoms: _552  and  _555
REMARK  229  A    between atoms: _555  and  _556
REMARK                            x       y       z     vdW  Elec       q    Type
REMARK                         _______ _______ _______ _____ _____    ______ ____
ROOT
ATOM      1  O   HOH     1      15.955  -5.866  21.201  0.00  0.00    +0.000 OA
ENDROOT
TORSDOF 0
REMARK  Name = ../refined-set-2016/1k6p/1k6p_pocket.pdb
REMARK  229 active torsions:
REMARK  status: ('A' for Active; 'I' for Inactive)
REMARK    1  A    between atoms: _1  and  _3
REMARK    2  A    between atoms: _3  and  _4
REMARK    3  A    between atoms: _3  and  _6
REMARK    4  A    between atoms: _6  and  _7
REMARK    5  A    between atoms: _7  and  _8
REMARK    6  A    between atoms: _8  and  _9
REMARK    7  A    between atoms: _18  and  _20
REMARK    8  A    between atoms: _20  and  _21
REMARK    9  A    between atoms: _20  and  _23
REMARK   10  A    between atoms: _23  and  _24
REMARK   11  A    between atoms: _27  and  _29
REMARK   12  A    between atoms: _29  and  _30
REMARK   13  A    between atoms: _29  and  _32
REMARK   14  A    between atoms: _32  and  _33
REMARK   15  A    between atoms: _36  and  _38
REMARK   16  A    between atoms: _38  and  _39
REMARK   17  A    between atoms: _38  and  _41
REMARK   18  A    between atoms: _41  and  _42
REMARK   19  A    between atoms: _45  and  _47
REMARK   20  A    between atoms: _47  and  _48
REMARK   21  A    between atoms: _47  and  _50
REMARK   22  A    between atoms: _50  and  _51
REMARK   23  A    between atoms: _54  and  _56
REMARK   24  A    between atoms: _56  and  _57
REMARK   25  A    between atoms: _56  and  _59
REMARK   26  A    between atoms: _59  and  _60
REMARK   27  A    between atoms: _63  and  _65
REMARK   28  A    between atoms: _65  and  _66
REMARK   29  A    between atoms: _68  and  _70
REMARK   30  A    between atoms: _70  and  _71
REMARK   31  A    between atoms: _74  and  _76
REMARK   32  A    between atoms: _76  and  _77
REMARK   33  A    between atoms: _76  and  _79
REMARK   34  A    between atoms: _79  and  _80
REMARK   35  A    between atoms: _83  and  _85
REMARK   36  A    between atoms: _85  and  _86
REMARK   37  A    between atoms: _85  and  _88
REMARK   38  A    between atoms: _88  and  _89
REMARK   39  A    between atoms: _92  and  _94
REMARK   40  A    between atoms: _94  and  _95
REMARK   41  A    between atoms: _94  and  _97
REMARK   42  A    between atoms: _97  and  _98
REMARK   43  A    between atoms: _101  and  _103
REMARK   44  A    between atoms: _103  and  _104
REMARK   45  A    between atoms: _103  and  _106
REMARK   46  A    between atoms: _109  and  _111
REMARK   47  A    between atoms: _111  and  _112
REMARK   48  A    between atoms: _111  and  _114
REMARK   49  A    between atoms: _114  and  _115
REMARK   50  A    between atoms: _115  and  _116
REMARK   51  A    between atoms: _118  and  _120
REMARK   52  A    between atoms: _120  and  _121
REMARK   53  A    between atoms: _120  and  _123
REMARK   54  A    between atoms: _123  and  _124
REMARK   55  A    between atoms: _127  and  _129
REMARK   56  A    between atoms: _129  and  _130
REMARK   57  A    between atoms: _132  and  _134
REMARK   58  A    between atoms: _134  and  _135
REMARK   59  A    between atoms: _137  and  _139
REMARK   60  A    between atoms: _139  and  _140
REMARK   61  A    between atoms: _139  and  _142
REMARK   62  A    between atoms: _142  and  _143
REMARK   63  A    between atoms: _146  and  _148
REMARK   64  A    between atoms: _148  and  _149
REMARK   65  A    between atoms: _151  and  _153
REMARK   66  A    between atoms: _153  and  _154
REMARK   67  A    between atoms: _156  and  _158
REMARK   68  A    between atoms: _158  and  _159
REMARK   69  A    between atoms: _158  and  _161
REMARK   70  A    between atoms: _161  and  _162
REMARK   71  A    between atoms: _168  and  _170
REMARK   72  A    between atoms: _170  and  _171
REMARK   73  A    between atoms: _170  and  _173
REMARK   74  A    between atoms: _173  and  _174
REMARK   75  A    between atoms: _177  and  _179
REMARK   76  A    between atoms: _179  and  _180
REMARK   77  A    between atoms: _179  and  _182
REMARK   78  A    between atoms: _185  and  _187
REMARK   79  A    between atoms: _187  and  _188
REMARK   80  A    between atoms: _187  and  _190
REMARK   81  A    between atoms: _190  and  _191
REMARK   82  A    between atoms: _194  and  _196
REMARK   83  A    between atoms: _196  and  _197
REMARK   84  A    between atoms: _196  and  _199
REMARK   85  A    between atoms: _199  and  _200
REMARK   86  A    between atoms: _204  and  _205
REMARK   87  A    between atoms: _210  and  _212
REMARK   88  A    between atoms: _212  and  _213
REMARK   89  A    between atoms: _212  and  _215
REMARK   90  A    between atoms: _215  and  _216
REMARK   91  A    between atoms: _219  and  _221
REMARK   92  A    between atoms: _221  and  _222
REMARK   93  A    between atoms: _221  and  _224
REMARK   94  A    between atoms: _224  and  _225
REMARK   95  A    between atoms: _230  and  _232
REMARK   96  A    between atoms: _232  and  _233
REMARK   97  A    between atoms: _232  and  _235
REMARK   98  A    between atoms: _238  and  _240
REMARK   99  A    between atoms: _240  and  _241
REMARK  100  A    between atoms: _240  and  _243
REMARK  101  A    between atoms: _243  and  _244
REMARK  102  A    between atoms: _247  and  _249
REMARK  103  A    between atoms: _249  and  _250
REMARK  104  A    between atoms: _252  and  _254
REMARK  105  A    between atoms: _254  and  _255
REMARK  106  A    between atoms: _254  and  _257
REMARK  107  A    between atoms: _257  and  _258
REMARK  108  A    between atoms: _258  and  _259
REMARK  109  A    between atoms: _259  and  _260
REMARK  110  A    between atoms: _269  and  _271
REMARK  111  A    between atoms: _271  and  _272
REMARK  112  A    between atoms: _271  and  _274
REMARK  113  A    between atoms: _274  and  _275
REMARK  114  A    between atoms: _275  and  _276
REMARK  115  A    between atoms: _276  and  _277
REMARK  116  A    between atoms: _286  and  _288
REMARK  117  A    between atoms: _288  and  _289
REMARK  118  A    between atoms: _288  and  _291
REMARK  119  A    between atoms: _291  and  _292
REMARK  120  A    between atoms: _295  and  _297
REMARK  121  A    between atoms: _297  and  _298
REMARK  122  A    between atoms: _297  and  _300
REMARK  123  A    between atoms: _300  and  _301
REMARK  124  A    between atoms: _304  and  _306
REMARK  125  A    between atoms: _306  and  _307
REMARK  126  A    between atoms: _306  and  _309
REMARK  127  A    between atoms: _309  and  _310
REMARK  128  A    between atoms: _313  and  _315
REMARK  129  A    between atoms: _315  and  _316
REMARK  130  A    between atoms: _315  and  _318
REMARK  131  A    between atoms: _318  and  _319
REMARK  132  A    between atoms: _322  and  _324
REMARK  133  A    between atoms: _324  and  _325
REMARK  134  A    between atoms: _327  and  _329
REMARK  135  A    between atoms: _329  and  _330
REMARK  136  A    between atoms: _333  and  _335
REMARK  137  A    between atoms: _335  and  _336
REMARK  138  A    between atoms: _335  and  _338
REMARK  139  A    between atoms: _338  and  _339
REMARK  140  A    between atoms: _342  and  _344
REMARK  141  A    between atoms: _344  and  _345
REMARK  142  A    between atoms: _344  and  _347
REMARK  143  A    between atoms: _347  and  _348
REMARK  144  A    between atoms: _351  and  _353
REMARK  145  A    between atoms: _353  and  _354
REMARK  146  A    between atoms: _353  and  _356
REMARK  147  A    between atoms: _356  and  _357
REMARK  148  A    between atoms: _360  and  _362
REMARK  149  A    between atoms: _362  and  _363
REMARK  150  A    between atoms: _362  and  _365
REMARK  151  A    between atoms: _368  and  _370
REMARK  152  A    between atoms: _370  and  _371
REMARK  153  A    between atoms: _370  and  _373
REMARK  154  A    between atoms: _373  and  _374
REMARK  155  A    between atoms: _377  and  _379
REMARK  156  A    between atoms: _379  and  _380
REMARK  157  A    between atoms: _379  and  _382
REMARK  158  A    between atoms: _382  and  _383
REMARK  159  A    between atoms: _383  and  _384
REMARK  160  A    between atoms: _384  and  _385
REMARK  161  A    between atoms: _385  and  _386
REMARK  162  A    between atoms: _390  and  _392
REMARK  163  A    between atoms: _392  and  _393
REMARK  164  A    between atoms: _392  and  _395
REMARK  165  A    between atoms: _395  and  _396
REMARK  166  A    between atoms: _396  and  _397
REMARK  167  A    between atoms: _399  and  _401
REMARK  168  A    between atoms: _401  and  _402
REMARK  169  A    between atoms: _401  and  _404
REMARK  170  A    between atoms: _404  and  _405
REMARK  171  A    between atoms: _408  and  _410
REMARK  172  A    between atoms: _410  and  _411
REMARK  173  A    between atoms: _413  and  _415
REMARK  174  A    between atoms: _415  and  _416
REMARK  175  A    between atoms: _418  and  _420
REMARK  176  A    between atoms: _420  and  _421
REMARK  177  A    between atoms: _420  and  _423
REMARK  178  A    between atoms: _423  and  _424
REMARK  179  A    between atoms: _427  and  _429
REMARK  180  A    between atoms: _429  and  _430
REMARK  181  A    between atoms: _432  and  _434
REMARK  182  A    between atoms: _434  and  _435
REMARK  183  A    between atoms: _437  and  _439
REMARK  184  A    between atoms: _439  and  _440
REMARK  185  A    between atoms: _439  and  _442
REMARK  186  A    between atoms: _442  and  _443
REMARK  187  A    between atoms: _449  and  _451
REMARK  188  A    between atoms: _451  and  _452
REMARK  189  A    between atoms: _451  and  _454
REMARK  190  A    between atoms: _454  and  _455
REMARK  191  A    between atoms: _458  and  _460
REMARK  192  A    between atoms: _460  and  _461
REMARK  193  A    between atoms: _460  and  _463
REMARK  194  A    between atoms: _466  and  _468
REMARK  195  A    between atoms: _468  and  _469
REMARK  196  A    between atoms: _468  and  _471
REMARK  197  A    between atoms: _471  and  _472
REMARK  198  A    between atoms: _475  and  _477
REMARK  199  A    between atoms: _477  and  _478
REMARK  200  A    between atoms: _477  and  _480
REMARK  201  A    between atoms: _480  and  _481
REMARK  202  A    between atoms: _485  and  _486
REMARK  203  A    between atoms: _491  and  _493
REMARK  204  A    between atoms: _493  and  _494
REMARK  205  A    between atoms: _493  and  _496
REMARK  206  A    between atoms: _496  and  _497
REMARK  207  A    between atoms: _500  and  _502
REMARK  208  A    between atoms: _502  and  _503
REMARK  209  A    between atoms: _502  and  _505
REMARK  210  A    between atoms: _505  and  _506
REMARK  211  A    between atoms: _511  and  _513
REMARK  212  A    between atoms: _513  and  _514
REMARK  213  A    between atoms: _513  and  _516
REMARK  214  A    between atoms: _519  and  _521
REMARK  215  A    between atoms: _521  and  _522
REMARK  216  A    between atoms: _521  and  _524
REMARK  217  A    between atoms: _524  and  _525
REMARK  218  A    between atoms: _528  and  _530
REMARK  219  A    between atoms: _530  and  _531
REMARK  220  A    between atoms: _533  and  _535
REMARK  221  A    between atoms: _535  and  _536
REMARK  222  A    between atoms: _535  and  _538
REMARK  223  A    between atoms: _538  and  _539
REMARK  224  A    between atoms: _539  and  _540
REMARK  225  A    between atoms: _540  and  _541
REMARK  226  A    between atoms: _550  and  _552
REMARK  227  A    between atoms: _552  and  _553
REMARK  228  A    between atoms: _552  and  _555
REMARK  229  A    between atoms: _555  and  _556
REMARK                            x       y       z     vdW  Elec       q    Type
REMARK                         _______ _______ _______ _____ _____    ______ ____
ROOT
ATOM      1  O   HOH     1       8.226 -11.512  16.615  0.00  0.00    +0.000 OA
ENDROOT
TORSDOF 0
REMARK  Name = ../refined-set-2016/1k6p/1k6p_pocket.pdb
REMARK  229 active torsions:
REMARK  status: ('A' for Active; 'I' for Inactive)
REMARK    1  A    between atoms: _1  and  _3
REMARK    2  A    between atoms: _3  and  _4
REMARK    3  A    between atoms: _3  and  _6
REMARK    4  A    between atoms: _6  and  _7
REMARK    5  A    between atoms: _7  and  _8
REMARK    6  A    between atoms: _8  and  _9
REMARK    7  A    between atoms: _18  and  _20
REMARK    8  A    between atoms: _20  and  _21
REMARK    9  A    between atoms: _20  and  _23
REMARK   10  A    between atoms: _23  and  _24
REMARK   11  A    between atoms: _27  and  _29
REMARK   12  A    between atoms: _29  and  _30
REMARK   13  A    between atoms: _29  and  _32
REMARK   14  A    between atoms: _32  and  _33
REMARK   15  A    between atoms: _36  and  _38
REMARK   16  A    between atoms: _38  and  _39
REMARK   17  A    between atoms: _38  and  _41
REMARK   18  A    between atoms: _41  and  _42
REMARK   19  A    between atoms: _45  and  _47
REMARK   20  A    between atoms: _47  and  _48
REMARK   21  A    between atoms: _47  and  _50
REMARK   22  A    between atoms: _50  and  _51
REMARK   23  A    between atoms: _54  and  _56
REMARK   24  A    between atoms: _56  and  _57
REMARK   25  A    between atoms: _56  and  _59
REMARK   26  A    between atoms: _59  and  _60
REMARK   27  A    between atoms: _63  and  _65
REMARK   28  A    between atoms: _65  and  _66
REMARK   29  A    between atoms: _68  and  _70
REMARK   30  A    between atoms: _70  and  _71
REMARK   31  A    between atoms: _74  and  _76
REMARK   32  A    between atoms: _76  and  _77
REMARK   33  A    between atoms: _76  and  _79
REMARK   34  A    between atoms: _79  and  _80
REMARK   35  A    between atoms: _83  and  _85
REMARK   36  A    between atoms: _85  and  _86
REMARK   37  A    between atoms: _85  and  _88
REMARK   38  A    between atoms: _88  and  _89
REMARK   39  A    between atoms: _92  and  _94
REMARK   40  A    between atoms: _94  and  _95
REMARK   41  A    between atoms: _94  and  _97
REMARK   42  A    between atoms: _97  and  _98
REMARK   43  A    between atoms: _101  and  _103
REMARK   44  A    between atoms: _103  and  _104
REMARK   45  A    between atoms: _103  and  _106
REMARK   46  A    between atoms: _109  and  _111
REMARK   47  A    between atoms: _111  and  _112
REMARK   48  A    between atoms: _111  and  _114
REMARK   49  A    between atoms: _114  and  _115
REMARK   50  A    between atoms: _115  and  _116
REMARK   51  A    between atoms: _118  and  _120
REMARK   52  A    between atoms: _120  and  _121
REMARK   53  A    between atoms: _120  and  _123
REMARK   54  A    between atoms: _123  and  _124
REMARK   55  A    between atoms: _127  and  _129
REMARK   56  A    between atoms: _129  and  _130
REMARK   57  A    between atoms: _132  and  _134
REMARK   58  A    between atoms: _134  and  _135
REMARK   59  A    between atoms: _137  and  _139
REMARK   60  A    between atoms: _139  and  _140
REMARK   61  A    between atoms: _139  and  _142
REMARK   62  A    between atoms: _142  and  _143
REMARK   63  A    between atoms: _146  and  _148
REMARK   64  A    between atoms: _148  and  _149
REMARK   65  A    between atoms: _151  and  _153
REMARK   66  A    between atoms: _153  and  _154
REMARK   67  A    between atoms: _156  and  _158
REMARK   68  A    between atoms: _158  and  _159
REMARK   69  A    between atoms: _158  and  _161
REMARK   70  A    between atoms: _161  and  _162
REMARK   71  A    between atoms: _168  and  _170
REMARK   72  A    between atoms: _170  and  _171
REMARK   73  A    between atoms: _170  and  _173
REMARK   74  A    between atoms: _173  and  _174
REMARK   75  A    between atoms: _177  and  _179
REMARK   76  A    between atoms: _179  and  _180
REMARK   77  A    between atoms: _179  and  _182
REMARK   78  A    between atoms: _185  and  _187
REMARK   79  A    between atoms: _187  and  _188
REMARK   80  A    between atoms: _187  and  _190
REMARK   81  A    between atoms: _190  and  _191
REMARK   82  A    between atoms: _194  and  _196
REMARK   83  A    between atoms: _196  and  _197
REMARK   84  A    between atoms: _196  and  _199
REMARK   85  A    between atoms: _199  and  _200
REMARK   86  A    between atoms: _204  and  _205
REMARK   87  A    between atoms: _210  and  _212
REMARK   88  A    between atoms: _212  and  _213
REMARK   89  A    between atoms: _212  and  _215
REMARK   90  A    between atoms: _215  and  _216
REMARK   91  A    between atoms: _219  and  _221
REMARK   92  A    between atoms: _221  and  _222
REMARK   93  A    between atoms: _221  and  _224
REMARK   94  A    between atoms: _224  and  _225
REMARK   95  A    between atoms: _230  and  _232
REMARK   96  A    between atoms: _232  and  _233
REMARK   97  A    between atoms: _232  and  _235
REMARK   98  A    between atoms: _238  and  _240
REMARK   99  A    between atoms: _240  and  _241
REMARK  100  A    between atoms: _240  and  _243
REMARK  101  A    between atoms: _243  and  _244
REMARK  102  A    between atoms: _247  and  _249
REMARK  103  A    between atoms: _249  and  _250
REMARK  104  A    between atoms: _252  and  _254
REMARK  105  A    between atoms: _254  and  _255
REMARK  106  A    between atoms: _254  and  _257
REMARK  107  A    between atoms: _257  and  _258
REMARK  108  A    between atoms: _258  and  _259
REMARK  109  A    between atoms: _259  and  _260
REMARK  110  A    between atoms: _269  and  _271
REMARK  111  A    between atoms: _271  and  _272
REMARK  112  A    between atoms: _271  and  _274
REMARK  113  A    between atoms: _274  and  _275
REMARK  114  A    between atoms: _275  and  _276
REMARK  115  A    between atoms: _276  and  _277
REMARK  116  A    between atoms: _286  and  _288
REMARK  117  A    between atoms: _288  and  _289
REMARK  118  A    between atoms: _288  and  _291
REMARK  119  A    between atoms: _291  and  _292
REMARK  120  A    between atoms: _295  and  _297
REMARK  121  A    between atoms: _297  and  _298
REMARK  122  A    between atoms: _297  and  _300
REMARK  123  A    between atoms: _300  and  _301
REMARK  124  A    between atoms: _304  and  _306
REMARK  125  A    between atoms: _306  and  _307
REMARK  126  A    between atoms: _306  and  _309
REMARK  127  A    between atoms: _309  and  _310
REMARK  128  A    between atoms: _313  and  _315
REMARK  129  A    between atoms: _315  and  _316
REMARK  130  A    between atoms: _315  and  _318
REMARK  131  A    between atoms: _318  and  _319
REMARK  132  A    between atoms: _322  and  _324
REMARK  133  A    between atoms: _324  and  _325
REMARK  134  A    between atoms: _327  and  _329
REMARK  135  A    between atoms: _329  and  _330
REMARK  136  A    between atoms: _333  and  _335
REMARK  137  A    between atoms: _335  and  _336
REMARK  138  A    between atoms: _335  and  _338
REMARK  139  A    between atoms: _338  and  _339
REMARK  140  A    between atoms: _342  and  _344
REMARK  141  A    between atoms: _344  and  _345
REMARK  142  A    between atoms: _344  and  _347
REMARK  143  A    between atoms: _347  and  _348
REMARK  144  A    between atoms: _351  and  _353
REMARK  145  A    between atoms: _353  and  _354
REMARK  146  A    between atoms: _353  and  _356
REMARK  147  A    between atoms: _356  and  _357
REMARK  148  A    between atoms: _360  and  _362
REMARK  149  A    between atoms: _362  and  _363
REMARK  150  A    between atoms: _362  and  _365
REMARK  151  A    between atoms: _368  and  _370
REMARK  152  A    between atoms: _370  and  _371
REMARK  153  A    between atoms: _370  and  _373
REMARK  154  A    between atoms: _373  and  _374
REMARK  155  A    between atoms: _377  and  _379
REMARK  156  A    between atoms: _379  and  _380
REMARK  157  A    between atoms: _379  and  _382
REMARK  158  A    between atoms: _382  and  _383
REMARK  159  A    between atoms: _383  and  _384
REMARK  160  A    between atoms: _384  and  _385
REMARK  161  A    between atoms: _385  and  _386
REMARK  162  A    between atoms: _390  and  _392
REMARK  163  A    between atoms: _392  and  _393
REMARK  164  A    between atoms: _392  and  _395
REMARK  165  A    between atoms: _395  and  _396
REMARK  166  A    between atoms: _396  and  _397
REMARK  167  A    between atoms: _399  and  _401
REMARK  168  A    between atoms: _401  and  _402
REMARK  169  A    between atoms: _401  and  _404
REMARK  170  A    between atoms: _404  and  _405
REMARK  171  A    between atoms: _408  and  _410
REMARK  172  A    between atoms: _410  and  _411
REMARK  173  A    between atoms: _413  and  _415
REMARK  174  A    between atoms: _415  and  _416
REMARK  175  A    between atoms: _418  and  _420
REMARK  176  A    between atoms: _420  and  _421
REMARK  177  A    between atoms: _420  and  _423
REMARK  178  A    between atoms: _423  and  _424
REMARK  179  A    between atoms: _427  and  _429
REMARK  180  A    between atoms: _429  and  _430
REMARK  181  A    between atoms: _432  and  _434
REMARK  182  A    between atoms: _434  and  _435
REMARK  183  A    between atoms: _437  and  _439
REMARK  184  A    between atoms: _439  and  _440
REMARK  185  A    between atoms: _439  and  _442
REMARK  186  A    between atoms: _442  and  _443
REMARK  187  A    between atoms: _449  and  _451
REMARK  188  A    between atoms: _451  and  _452
REMARK  189  A    between atoms: _451  and  _454
REMARK  190  A    between atoms: _454  and  _455
REMARK  191  A    between atoms: _458  and  _460
REMARK  192  A    between atoms: _460  and  _461
REMARK  193  A    between atoms: _460  and  _463
REMARK  194  A    between atoms: _466  and  _468
REMARK  195  A    between atoms: _468  and  _469
REMARK  196  A    between atoms: _468  and  _471
REMARK  197  A    between atoms: _471  and  _472
REMARK  198  A    between atoms: _475  and  _477
REMARK  199  A    between atoms: _477  and  _478
REMARK  200  A    between atoms: _477  and  _480
REMARK  201  A    between atoms: _480  and  _481
REMARK  202  A    between atoms: _485  and  _486
REMARK  203  A    between atoms: _491  and  _493
REMARK  204  A    between atoms: _493  and  _494
REMARK  205  A    between atoms: _493  and  _496
REMARK  206  A    between atoms: _496  and  _497
REMARK  207  A    between atoms: _500  and  _502
REMARK  208  A    between atoms: _502  and  _503
REMARK  209  A    between atoms: _502  and  _505
REMARK  210  A    between atoms: _505  and  _506
REMARK  211  A    between atoms: _511  and  _513
REMARK  212  A    between atoms: _513  and  _514
REMARK  213  A    between atoms: _513  and  _516
REMARK  214  A    between atoms: _519  and  _521
REMARK  215  A    between atoms: _521  and  _522
REMARK  216  A    between atoms: _521  and  _524
REMARK  217  A    between atoms: _524  and  _525
REMARK  218  A    between atoms: _528  and  _530
REMARK  219  A    between atoms: _530  and  _531
REMARK  220  A    between atoms: _533  and  _535
REMARK  221  A    between atoms: _535  and  _536
REMARK  222  A    between atoms: _535  and  _538
REMARK  223  A    between atoms: _538  and  _539
REMARK  224  A    between atoms: _539  and  _540
REMARK  225  A    between atoms: _540  and  _541
REMARK  226  A    between atoms: _550  and  _552
REMARK  227  A    between atoms: _552  and  _553
REMARK  228  A    between atoms: _552  and  _555
REMARK  229  A    between atoms: _555  and  _556
REMARK                            x       y       z     vdW  Elec       q    Type
REMARK                         _______ _______ _______ _____ _____    ______ ____
ROOT
ATOM      1  O   HOH     1       4.423  10.680  10.024  0.00  0.00    +0.000 OA
ENDROOT
TORSDOF 0
REMARK  Name = ../refined-set-2016/1k6p/1k6p_pocket.pdb
REMARK  229 active torsions:
REMARK  status: ('A' for Active; 'I' for Inactive)
REMARK    1  A    between atoms: _1  and  _3
REMARK    2  A    between atoms: _3  and  _4
REMARK    3  A    between atoms: _3  and  _6
REMARK    4  A    between atoms: _6  and  _7
REMARK    5  A    between atoms: _7  and  _8
REMARK    6  A    between atoms: _8  and  _9
REMARK    7  A    between atoms: _18  and  _20
REMARK    8  A    between atoms: _20  and  _21
REMARK    9  A    between atoms: _20  and  _23
REMARK   10  A    between atoms: _23  and  _24
REMARK   11  A    between atoms: _27  and  _29
REMARK   12  A    between atoms: _29  and  _30
REMARK   13  A    between atoms: _29  and  _32
REMARK   14  A    between atoms: _32  and  _33
REMARK   15  A    between atoms: _36  and  _38
REMARK   16  A    between atoms: _38  and  _39
REMARK   17  A    between atoms: _38  and  _41
REMARK   18  A    between atoms: _41  and  _42
REMARK   19  A    between atoms: _45  and  _47
REMARK   20  A    between atoms: _47  and  _48
REMARK   21  A    between atoms: _47  and  _50
REMARK   22  A    between atoms: _50  and  _51
REMARK   23  A    between atoms: _54  and  _56
REMARK   24  A    between atoms: _56  and  _57
REMARK   25  A    between atoms: _56  and  _59
REMARK   26  A    between atoms: _59  and  _60
REMARK   27  A    between atoms: _63  and  _65
REMARK   28  A    between atoms: _65  and  _66
REMARK   29  A    between atoms: _68  and  _70
REMARK   30  A    between atoms: _70  and  _71
REMARK   31  A    between atoms: _74  and  _76
REMARK   32  A    between atoms: _76  and  _77
REMARK   33  A    between atoms: _76  and  _79
REMARK   34  A    between atoms: _79  and  _80
REMARK   35  A    between atoms: _83  and  _85
REMARK   36  A    between atoms: _85  and  _86
REMARK   37  A    between atoms: _85  and  _88
REMARK   38  A    between atoms: _88  and  _89
REMARK   39  A    between atoms: _92  and  _94
REMARK   40  A    between atoms: _94  and  _95
REMARK   41  A    between atoms: _94  and  _97
REMARK   42  A    between atoms: _97  and  _98
REMARK   43  A    between atoms: _101  and  _103
REMARK   44  A    between atoms: _103  and  _104
REMARK   45  A    between atoms: _103  and  _106
REMARK   46  A    between atoms: _109  and  _111
REMARK   47  A    between atoms: _111  and  _112
REMARK   48  A    between atoms: _111  and  _114
REMARK   49  A    between atoms: _114  and  _115
REMARK   50  A    between atoms: _115  and  _116
REMARK   51  A    between atoms: _118  and  _120
REMARK   52  A    between atoms: _120  and  _121
REMARK   53  A    between atoms: _120  and  _123
REMARK   54  A    between atoms: _123  and  _124
REMARK   55  A    between atoms: _127  and  _129
REMARK   56  A    between atoms: _129  and  _130
REMARK   57  A    between atoms: _132  and  _134
REMARK   58  A    between atoms: _134  and  _135
REMARK   59  A    between atoms: _137  and  _139
REMARK   60  A    between atoms: _139  and  _140
REMARK   61  A    between atoms: _139  and  _142
REMARK   62  A    between atoms: _142  and  _143
REMARK   63  A    between atoms: _146  and  _148
REMARK   64  A    between atoms: _148  and  _149
REMARK   65  A    between atoms: _151  and  _153
REMARK   66  A    between atoms: _153  and  _154
REMARK   67  A    between atoms: _156  and  _158
REMARK   68  A    between atoms: _158  and  _159
REMARK   69  A    between atoms: _158  and  _161
REMARK   70  A    between atoms: _161  and  _162
REMARK   71  A    between atoms: _168  and  _170
REMARK   72  A    between atoms: _170  and  _171
REMARK   73  A    between atoms: _170  and  _173
REMARK   74  A    between atoms: _173  and  _174
REMARK   75  A    between atoms: _177  and  _179
REMARK   76  A    between atoms: _179  and  _180
REMARK   77  A    between atoms: _179  and  _182
REMARK   78  A    between atoms: _185  and  _187
REMARK   79  A    between atoms: _187  and  _188
REMARK   80  A    between atoms: _187  and  _190
REMARK   81  A    between atoms: _190  and  _191
REMARK   82  A    between atoms: _194  and  _196
REMARK   83  A    between atoms: _196  and  _197
REMARK   84  A    between atoms: _196  and  _199
REMARK   85  A    between atoms: _199  and  _200
REMARK   86  A    between atoms: _204  and  _205
REMARK   87  A    between atoms: _210  and  _212
REMARK   88  A    between atoms: _212  and  _213
REMARK   89  A    between atoms: _212  and  _215
REMARK   90  A    between atoms: _215  and  _216
REMARK   91  A    between atoms: _219  and  _221
REMARK   92  A    between atoms: _221  and  _222
REMARK   93  A    between atoms: _221  and  _224
REMARK   94  A    between atoms: _224  and  _225
REMARK   95  A    between atoms: _230  and  _232
REMARK   96  A    between atoms: _232  and  _233
REMARK   97  A    between atoms: _232  and  _235
REMARK   98  A    between atoms: _238  and  _240
REMARK   99  A    between atoms: _240  and  _241
REMARK  100  A    between atoms: _240  and  _243
REMARK  101  A    between atoms: _243  and  _244
REMARK  102  A    between atoms: _247  and  _249
REMARK  103  A    between atoms: _249  and  _250
REMARK  104  A    between atoms: _252  and  _254
REMARK  105  A    between atoms: _254  and  _255
REMARK  106  A    between atoms: _254  and  _257
REMARK  107  A    between atoms: _257  and  _258
REMARK  108  A    between atoms: _258  and  _259
REMARK  109  A    between atoms: _259  and  _260
REMARK  110  A    between atoms: _269  and  _271
REMARK  111  A    between atoms: _271  and  _272
REMARK  112  A    between atoms: _271  and  _274
REMARK  113  A    between atoms: _274  and  _275
REMARK  114  A    between atoms: _275  and  _276
REMARK  115  A    between atoms: _276  and  _277
REMARK  116  A    between atoms: _286  and  _288
REMARK  117  A    between atoms: _288  and  _289
REMARK  118  A    between atoms: _288  and  _291
REMARK  119  A    between atoms: _291  and  _292
REMARK  120  A    between atoms: _295  and  _297
REMARK  121  A    between atoms: _297  and  _298
REMARK  122  A    between atoms: _297  and  _300
REMARK  123  A    between atoms: _300  and  _301
REMARK  124  A    between atoms: _304  and  _306
REMARK  125  A    between atoms: _306  and  _307
REMARK  126  A    between atoms: _306  and  _309
REMARK  127  A    between atoms: _309  and  _310
REMARK  128  A    between atoms: _313  and  _315
REMARK  129  A    between atoms: _315  and  _316
REMARK  130  A    between atoms: _315  and  _318
REMARK  131  A    between atoms: _318  and  _319
REMARK  132  A    between atoms: _322  and  _324
REMARK  133  A    between atoms: _324  and  _325
REMARK  134  A    between atoms: _327  and  _329
REMARK  135  A    between atoms: _329  and  _330
REMARK  136  A    between atoms: _333  and  _335
REMARK  137  A    between atoms: _335  and  _336
REMARK  138  A    between atoms: _335  and  _338
REMARK  139  A    between atoms: _338  and  _339
REMARK  140  A    between atoms: _342  and  _344
REMARK  141  A    between atoms: _344  and  _345
REMARK  142  A    between atoms: _344  and  _347
REMARK  143  A    between atoms: _347  and  _348
REMARK  144  A    between atoms: _351  and  _353
REMARK  145  A    between atoms: _353  and  _354
REMARK  146  A    between atoms: _353  and  _356
REMARK  147  A    between atoms: _356  and  _357
REMARK  148  A    between atoms: _360  and  _362
REMARK  149  A    between atoms: _362  and  _363
REMARK  150  A    between atoms: _362  and  _365
REMARK  151  A    between atoms: _368  and  _370
REMARK  152  A    between atoms: _370  and  _371
REMARK  153  A    between atoms: _370  and  _373
REMARK  154  A    between atoms: _373  and  _374
REMARK  155  A    between atoms: _377  and  _379
REMARK  156  A    between atoms: _379  and  _380
REMARK  157  A    between atoms: _379  and  _382
REMARK  158  A    between atoms: _382  and  _383
REMARK  159  A    between atoms: _383  and  _384
REMARK  160  A    between atoms: _384  and  _385
REMARK  161  A    between atoms: _385  and  _386
REMARK  162  A    between atoms: _390  and  _392
REMARK  163  A    between atoms: _392  and  _393
REMARK  164  A    between atoms: _392  and  _395
REMARK  165  A    between atoms: _395  and  _396
REMARK  166  A    between atoms: _396  and  _397
REMARK  167  A    between atoms: _399  and  _401
REMARK  168  A    between atoms: _401  and  _402
REMARK  169  A    between atoms: _401  and  _404
REMARK  170  A    between atoms: _404  and  _405
REMARK  171  A    between atoms: _408  and  _410
REMARK  172  A    between atoms: _410  and  _411
REMARK  173  A    between atoms: _413  and  _415
REMARK  174  A    between atoms: _415  and  _416
REMARK  175  A    between atoms: _418  and  _420
REMARK  176  A    between atoms: _420  and  _421
REMARK  177  A    between atoms: _420  and  _423
REMARK  178  A    between atoms: _423  and  _424
REMARK  179  A    between atoms: _427  and  _429
REMARK  180  A    between atoms: _429  and  _430
REMARK  181  A    between atoms: _432  and  _434
REMARK  182  A    between atoms: _434  and  _435
REMARK  183  A    between atoms: _437  and  _439
REMARK  184  A    between atoms: _439  and  _440
REMARK  185  A    between atoms: _439  and  _442
REMARK  186  A    between atoms: _442  and  _443
REMARK  187  A    between atoms: _449  and  _451
REMARK  188  A    between atoms: _451  and  _452
REMARK  189  A    between atoms: _451  and  _454
REMARK  190  A    between atoms: _454  and  _455
REMARK  191  A    between atoms: _458  and  _460
REMARK  192  A    between atoms: _460  and  _461
REMARK  193  A    between atoms: _460  and  _463
REMARK  194  A    between atoms: _466  and  _468
REMARK  195  A    between atoms: _468  and  _469
REMARK  196  A    between atoms: _468  and  _471
REMARK  197  A    between atoms: _471  and  _472
REMARK  198  A    between atoms: _475  and  _477
REMARK  199  A    between atoms: _477  and  _478
REMARK  200  A    between atoms: _477  and  _480
REMARK  201  A    between atoms: _480  and  _481
REMARK  202  A    between atoms: _485  and  _486
REMARK  203  A    between atoms: _491  and  _493
REMARK  204  A    between atoms: _493  and  _494
REMARK  205  A    between atoms: _493  and  _496
REMARK  206  A    between atoms: _496  and  _497
REMARK  207  A    between atoms: _500  and  _502
REMARK  208  A    between atoms: _502  and  _503
REMARK  209  A    between atoms: _502  and  _505
REMARK  210  A    between atoms: _505  and  _506
REMARK  211  A    between atoms: _511  and  _513
REMARK  212  A    between atoms: _513  and  _514
REMARK  213  A    between atoms: _513  and  _516
REMARK  214  A    between atoms: _519  and  _521
REMARK  215  A    between atoms: _521  and  _522
REMARK  216  A    between atoms: _521  and  _524
REMARK  217  A    between atoms: _524  and  _525
REMARK  218  A    between atoms: _528  and  _530
REMARK  219  A    between atoms: _530  and  _531
REMARK  220  A    between atoms: _533  and  _535
REMARK  221  A    between atoms: _535  and  _536
REMARK  222  A    between atoms: _535  and  _538
REMARK  223  A    between atoms: _538  and  _539
REMARK  224  A    between atoms: _539  and  _540
REMARK  225  A    between atoms: _540  and  _541
REMARK  226  A    between atoms: _550  and  _552
REMARK  227  A    between atoms: _552  and  _553
REMARK  228  A    between atoms: _552  and  _555
REMARK  229  A    between atoms: _555  and  _556
REMARK                            x       y       z     vdW  Elec       q    Type
REMARK                         _______ _______ _______ _____ _____    ______ ____
ROOT
ATOM      1  O   HOH     1      10.730   9.019  10.961  0.00  0.00    +0.000 OA
ENDROOT
TORSDOF 0
REMARK  Name = ../refined-set-2016/1k6p/1k6p_pocket.pdb
REMARK  229 active torsions:
REMARK  status: ('A' for Active; 'I' for Inactive)
REMARK    1  A    between atoms: _1  and  _3
REMARK    2  A    between atoms: _3  and  _4
REMARK    3  A    between atoms: _3  and  _6
REMARK    4  A    between atoms: _6  and  _7
REMARK    5  A    between atoms: _7  and  _8
REMARK    6  A    between atoms: _8  and  _9
REMARK    7  A    between atoms: _18  and  _20
REMARK    8  A    between atoms: _20  and  _21
REMARK    9  A    between atoms: _20  and  _23
REMARK   10  A    between atoms: _23  and  _24
REMARK   11  A    between atoms: _27  and  _29
REMARK   12  A    between atoms: _29  and  _30
REMARK   13  A    between atoms: _29  and  _32
REMARK   14  A    between atoms: _32  and  _33
REMARK   15  A    between atoms: _36  and  _38
REMARK   16  A    between atoms: _38  and  _39
REMARK   17  A    between atoms: _38  and  _41
REMARK   18  A    between atoms: _41  and  _42
REMARK   19  A    between atoms: _45  and  _47
REMARK   20  A    between atoms: _47  and  _48
REMARK   21  A    between atoms: _47  and  _50
REMARK   22  A    between atoms: _50  and  _51
REMARK   23  A    between atoms: _54  and  _56
REMARK   24  A    between atoms: _56  and  _57
REMARK   25  A    between atoms: _56  and  _59
REMARK   26  A    between atoms: _59  and  _60
REMARK   27  A    between atoms: _63  and  _65
REMARK   28  A    between atoms: _65  and  _66
REMARK   29  A    between atoms: _68  and  _70
REMARK   30  A    between atoms: _70  and  _71
REMARK   31  A    between atoms: _74  and  _76
REMARK   32  A    between atoms: _76  and  _77
REMARK   33  A    between atoms: _76  and  _79
REMARK   34  A    between atoms: _79  and  _80
REMARK   35  A    between atoms: _83  and  _85
REMARK   36  A    between atoms: _85  and  _86
REMARK   37  A    between atoms: _85  and  _88
REMARK   38  A    between atoms: _88  and  _89
REMARK   39  A    between atoms: _92  and  _94
REMARK   40  A    between atoms: _94  and  _95
REMARK   41  A    between atoms: _94  and  _97
REMARK   42  A    between atoms: _97  and  _98
REMARK   43  A    between atoms: _101  and  _103
REMARK   44  A    between atoms: _103  and  _104
REMARK   45  A    between atoms: _103  and  _106
REMARK   46  A    between atoms: _109  and  _111
REMARK   47  A    between atoms: _111  and  _112
REMARK   48  A    between atoms: _111  and  _114
REMARK   49  A    between atoms: _114  and  _115
REMARK   50  A    between atoms: _115  and  _116
REMARK   51  A    between atoms: _118  and  _120
REMARK   52  A    between atoms: _120  and  _121
REMARK   53  A    between atoms: _120  and  _123
REMARK   54  A    between atoms: _123  and  _124
REMARK   55  A    between atoms: _127  and  _129
REMARK   56  A    between atoms: _129  and  _130
REMARK   57  A    between atoms: _132  and  _134
REMARK   58  A    between atoms: _134  and  _135
REMARK   59  A    between atoms: _137  and  _139
REMARK   60  A    between atoms: _139  and  _140
REMARK   61  A    between atoms: _139  and  _142
REMARK   62  A    between atoms: _142  and  _143
REMARK   63  A    between atoms: _146  and  _148
REMARK   64  A    between atoms: _148  and  _149
REMARK   65  A    between atoms: _151  and  _153
REMARK   66  A    between atoms: _153  and  _154
REMARK   67  A    between atoms: _156  and  _158
REMARK   68  A    between atoms: _158  and  _159
REMARK   69  A    between atoms: _158  and  _161
REMARK   70  A    between atoms: _161  and  _162
REMARK   71  A    between atoms: _168  and  _170
REMARK   72  A    between atoms: _170  and  _171
REMARK   73  A    between atoms: _170  and  _173
REMARK   74  A    between atoms: _173  and  _174
REMARK   75  A    between atoms: _177  and  _179
REMARK   76  A    between atoms: _179  and  _180
REMARK   77  A    between atoms: _179  and  _182
REMARK   78  A    between atoms: _185  and  _187
REMARK   79  A    between atoms: _187  and  _188
REMARK   80  A    between atoms: _187  and  _190
REMARK   81  A    between atoms: _190  and  _191
REMARK   82  A    between atoms: _194  and  _196
REMARK   83  A    between atoms: _196  and  _197
REMARK   84  A    between atoms: _196  and  _199
REMARK   85  A    between atoms: _199  and  _200
REMARK   86  A    between atoms: _204  and  _205
REMARK   87  A    between atoms: _210  and  _212
REMARK   88  A    between atoms: _212  and  _213
REMARK   89  A    between atoms: _212  and  _215
REMARK   90  A    between atoms: _215  and  _216
REMARK   91  A    between atoms: _219  and  _221
REMARK   92  A    between atoms: _221  and  _222
REMARK   93  A    between atoms: _221  and  _224
REMARK   94  A    between atoms: _224  and  _225
REMARK   95  A    between atoms: _230  and  _232
REMARK   96  A    between atoms: _232  and  _233
REMARK   97  A    between atoms: _232  and  _235
REMARK   98  A    between atoms: _238  and  _240
REMARK   99  A    between atoms: _240  and  _241
REMARK  100  A    between atoms: _240  and  _243
REMARK  101  A    between atoms: _243  and  _244
REMARK  102  A    between atoms: _247  and  _249
REMARK  103  A    between atoms: _249  and  _250
REMARK  104  A    between atoms: _252  and  _254
REMARK  105  A    between atoms: _254  and  _255
REMARK  106  A    between atoms: _254  and  _257
REMARK  107  A    between atoms: _257  and  _258
REMARK  108  A    between atoms: _258  and  _259
REMARK  109  A    between atoms: _259  and  _260
REMARK  110  A    between atoms: _269  and  _271
REMARK  111  A    between atoms: _271  and  _272
REMARK  112  A    between atoms: _271  and  _274
REMARK  113  A    between atoms: _274  and  _275
REMARK  114  A    between atoms: _275  and  _276
REMARK  115  A    between atoms: _276  and  _277
REMARK  116  A    between atoms: _286  and  _288
REMARK  117  A    between atoms: _288  and  _289
REMARK  118  A    between atoms: _288  and  _291
REMARK  119  A    between atoms: _291  and  _292
REMARK  120  A    between atoms: _295  and  _297
REMARK  121  A    between atoms: _297  and  _298
REMARK  122  A    between atoms: _297  and  _300
REMARK  123  A    between atoms: _300  and  _301
REMARK  124  A    between atoms: _304  and  _306
REMARK  125  A    between atoms: _306  and  _307
REMARK  126  A    between atoms: _306  and  _309
REMARK  127  A    between atoms: _309  and  _310
REMARK  128  A    between atoms: _313  and  _315
REMARK  129  A    between atoms: _315  and  _316
REMARK  130  A    between atoms: _315  and  _318
REMARK  131  A    between atoms: _318  and  _319
REMARK  132  A    between atoms: _322  and  _324
REMARK  133  A    between atoms: _324  and  _325
REMARK  134  A    between atoms: _327  and  _329
REMARK  135  A    between atoms: _329  and  _330
REMARK  136  A    between atoms: _333  and  _335
REMARK  137  A    between atoms: _335  and  _336
REMARK  138  A    between atoms: _335  and  _338
REMARK  139  A    between atoms: _338  and  _339
REMARK  140  A    between atoms: _342  and  _344
REMARK  141  A    between atoms: _344  and  _345
REMARK  142  A    between atoms: _344  and  _347
REMARK  143  A    between atoms: _347  and  _348
REMARK  144  A    between atoms: _351  and  _353
REMARK  145  A    between atoms: _353  and  _354
REMARK  146  A    between atoms: _353  and  _356
REMARK  147  A    between atoms: _356  and  _357
REMARK  148  A    between atoms: _360  and  _362
REMARK  149  A    between atoms: _362  and  _363
REMARK  150  A    between atoms: _362  and  _365
REMARK  151  A    between atoms: _368  and  _370
REMARK  152  A    between atoms: _370  and  _371
REMARK  153  A    between atoms: _370  and  _373
REMARK  154  A    between atoms: _373  and  _374
REMARK  155  A    between atoms: _377  and  _379
REMARK  156  A    between atoms: _379  and  _380
REMARK  157  A    between atoms: _379  and  _382
REMARK  158  A    between atoms: _382  and  _383
REMARK  159  A    between atoms: _383  and  _384
REMARK  160  A    between atoms: _384  and  _385
REMARK  161  A    between atoms: _385  and  _386
REMARK  162  A    between atoms: _390  and  _392
REMARK  163  A    between atoms: _392  and  _393
REMARK  164  A    between atoms: _392  and  _395
REMARK  165  A    between atoms: _395  and  _396
REMARK  166  A    between atoms: _396  and  _397
REMARK  167  A    between atoms: _399  and  _401
REMARK  168  A    between atoms: _401  and  _402
REMARK  169  A    between atoms: _401  and  _404
REMARK  170  A    between atoms: _404  and  _405
REMARK  171  A    between atoms: _408  and  _410
REMARK  172  A    between atoms: _410  and  _411
REMARK  173  A    between atoms: _413  and  _415
REMARK  174  A    between atoms: _415  and  _416
REMARK  175  A    between atoms: _418  and  _420
REMARK  176  A    between atoms: _420  and  _421
REMARK  177  A    between atoms: _420  and  _423
REMARK  178  A    between atoms: _423  and  _424
REMARK  179  A    between atoms: _427  and  _429
REMARK  180  A    between atoms: _429  and  _430
REMARK  181  A    between atoms: _432  and  _434
REMARK  182  A    between atoms: _434  and  _435
REMARK  183  A    between atoms: _437  and  _439
REMARK  184  A    between atoms: _439  and  _440
REMARK  185  A    between atoms: _439  and  _442
REMARK  186  A    between atoms: _442  and  _443
REMARK  187  A    between atoms: _449  and  _451
REMARK  188  A    between atoms: _451  and  _452
REMARK  189  A    between atoms: _451  and  _454
REMARK  190  A    between atoms: _454  and  _455
REMARK  191  A    between atoms: _458  and  _460
REMARK  192  A    between atoms: _460  and  _461
REMARK  193  A    between atoms: _460  and  _463
REMARK  194  A    between atoms: _466  and  _468
REMARK  195  A    between atoms: _468  and  _469
REMARK  196  A    between atoms: _468  and  _471
REMARK  197  A    between atoms: _471  and  _472
REMARK  198  A    between atoms: _475  and  _477
REMARK  199  A    between atoms: _477  and  _478
REMARK  200  A    between atoms: _477  and  _480
REMARK  201  A    between atoms: _480  and  _481
REMARK  202  A    between atoms: _485  and  _486
REMARK  203  A    between atoms: _491  and  _493
REMARK  204  A    between atoms: _493  and  _494
REMARK  205  A    between atoms: _493  and  _496
REMARK  206  A    between atoms: _496  and  _497
REMARK  207  A    between atoms: _500  and  _502
REMARK  208  A    between atoms: _502  and  _503
REMARK  209  A    between atoms: _502  and  _505
REMARK  210  A    between atoms: _505  and  _506
REMARK  211  A    between atoms: _511  and  _513
REMARK  212  A    between atoms: _513  and  _514
REMARK  213  A    between atoms: _513  and  _516
REMARK  214  A    between atoms: _519  and  _521
REMARK  215  A    between atoms: _521  and  _522
REMARK  216  A    between atoms: _521  and  _524
REMARK  217  A    between atoms: _524  and  _525
REMARK  218  A    between atoms: _528  and  _530
REMARK  219  A    between atoms: _530  and  _531
REMARK  220  A    between atoms: _533  and  _535
REMARK  221  A    between atoms: _535  and  _536
REMARK  222  A    between atoms: _535  and  _538
REMARK  223  A    between atoms: _538  and  _539
REMARK  224  A    between atoms: _539  and  _540
REMARK  225  A    between atoms: _540  and  _541
REMARK  226  A    between atoms: _550  and  _552
REMARK  227  A    between atoms: _552  and  _553
REMARK  228  A    between atoms: _552  and  _555
REMARK  229  A    between atoms: _555  and  _556
REMARK                            x       y       z     vdW  Elec       q    Type
REMARK                         _______ _______ _______ _____ _____    ______ ____
ROOT
ATOM      1  O   HOH     1       8.120   8.741   6.534  0.00  0.00    +0.000 OA
ENDROOT
TORSDOF 0
REMARK  Name = ../refined-set-2016/1k6p/1k6p_pocket.pdb
REMARK  229 active torsions:
REMARK  status: ('A' for Active; 'I' for Inactive)
REMARK    1  A    between atoms: _1  and  _3
REMARK    2  A    between atoms: _3  and  _4
REMARK    3  A    between atoms: _3  and  _6
REMARK    4  A    between atoms: _6  and  _7
REMARK    5  A    between atoms: _7  and  _8
REMARK    6  A    between atoms: _8  and  _9
REMARK    7  A    between atoms: _18  and  _20
REMARK    8  A    between atoms: _20  and  _21
REMARK    9  A    between atoms: _20  and  _23
REMARK   10  A    between atoms: _23  and  _24
REMARK   11  A    between atoms: _27  and  _29
REMARK   12  A    between atoms: _29  and  _30
REMARK   13  A    between atoms: _29  and  _32
REMARK   14  A    between atoms: _32  and  _33
REMARK   15  A    between atoms: _36  and  _38
REMARK   16  A    between atoms: _38  and  _39
REMARK   17  A    between atoms: _38  and  _41
REMARK   18  A    between atoms: _41  and  _42
REMARK   19  A    between atoms: _45  and  _47
REMARK   20  A    between atoms: _47  and  _48
REMARK   21  A    between atoms: _47  and  _50
REMARK   22  A    between atoms: _50  and  _51
REMARK   23  A    between atoms: _54  and  _56
REMARK   24  A    between atoms: _56  and  _57
REMARK   25  A    between atoms: _56  and  _59
REMARK   26  A    between atoms: _59  and  _60
REMARK   27  A    between atoms: _63  and  _65
REMARK   28  A    between atoms: _65  and  _66
REMARK   29  A    between atoms: _68  and  _70
REMARK   30  A    between atoms: _70  and  _71
REMARK   31  A    between atoms: _74  and  _76
REMARK   32  A    between atoms: _76  and  _77
REMARK   33  A    between atoms: _76  and  _79
REMARK   34  A    between atoms: _79  and  _80
REMARK   35  A    between atoms: _83  and  _85
REMARK   36  A    between atoms: _85  and  _86
REMARK   37  A    between atoms: _85  and  _88
REMARK   38  A    between atoms: _88  and  _89
REMARK   39  A    between atoms: _92  and  _94
REMARK   40  A    between atoms: _94  and  _95
REMARK   41  A    between atoms: _94  and  _97
REMARK   42  A    between atoms: _97  and  _98
REMARK   43  A    between atoms: _101  and  _103
REMARK   44  A    between atoms: _103  and  _104
REMARK   45  A    between atoms: _103  and  _106
REMARK   46  A    between atoms: _109  and  _111
REMARK   47  A    between atoms: _111  and  _112
REMARK   48  A    between atoms: _111  and  _114
REMARK   49  A    between atoms: _114  and  _115
REMARK   50  A    between atoms: _115  and  _116
REMARK   51  A    between atoms: _118  and  _120
REMARK   52  A    between atoms: _120  and  _121
REMARK   53  A    between atoms: _120  and  _123
REMARK   54  A    between atoms: _123  and  _124
REMARK   55  A    between atoms: _127  and  _129
REMARK   56  A    between atoms: _129  and  _130
REMARK   57  A    between atoms: _132  and  _134
REMARK   58  A    between atoms: _134  and  _135
REMARK   59  A    between atoms: _137  and  _139
REMARK   60  A    between atoms: _139  and  _140
REMARK   61  A    between atoms: _139  and  _142
REMARK   62  A    between atoms: _142  and  _143
REMARK   63  A    between atoms: _146  and  _148
REMARK   64  A    between atoms: _148  and  _149
REMARK   65  A    between atoms: _151  and  _153
REMARK   66  A    between atoms: _153  and  _154
REMARK   67  A    between atoms: _156  and  _158
REMARK   68  A    between atoms: _158  and  _159
REMARK   69  A    between atoms: _158  and  _161
REMARK   70  A    between atoms: _161  and  _162
REMARK   71  A    between atoms: _168  and  _170
REMARK   72  A    between atoms: _170  and  _171
REMARK   73  A    between atoms: _170  and  _173
REMARK   74  A    between atoms: _173  and  _174
REMARK   75  A    between atoms: _177  and  _179
REMARK   76  A    between atoms: _179  and  _180
REMARK   77  A    between atoms: _179  and  _182
REMARK   78  A    between atoms: _185  and  _187
REMARK   79  A    between atoms: _187  and  _188
REMARK   80  A    between atoms: _187  and  _190
REMARK   81  A    between atoms: _190  and  _191
REMARK   82  A    between atoms: _194  and  _196
REMARK   83  A    between atoms: _196  and  _197
REMARK   84  A    between atoms: _196  and  _199
REMARK   85  A    between atoms: _199  and  _200
REMARK   86  A    between atoms: _204  and  _205
REMARK   87  A    between atoms: _210  and  _212
REMARK   88  A    between atoms: _212  and  _213
REMARK   89  A    between atoms: _212  and  _215
REMARK   90  A    between atoms: _215  and  _216
REMARK   91  A    between atoms: _219  and  _221
REMARK   92  A    between atoms: _221  and  _222
REMARK   93  A    between atoms: _221  and  _224
REMARK   94  A    between atoms: _224  and  _225
REMARK   95  A    between atoms: _230  and  _232
REMARK   96  A    between atoms: _232  and  _233
REMARK   97  A    between atoms: _232  and  _235
REMARK   98  A    between atoms: _238  and  _240
REMARK   99  A    between atoms: _240  and  _241
REMARK  100  A    between atoms: _240  and  _243
REMARK  101  A    between atoms: _243  and  _244
REMARK  102  A    between atoms: _247  and  _249
REMARK  103  A    between atoms: _249  and  _250
REMARK  104  A    between atoms: _252  and  _254
REMARK  105  A    between atoms: _254  and  _255
REMARK  106  A    between atoms: _254  and  _257
REMARK  107  A    between atoms: _257  and  _258
REMARK  108  A    between atoms: _258  and  _259
REMARK  109  A    between atoms: _259  and  _260
REMARK  110  A    between atoms: _269  and  _271
REMARK  111  A    between atoms: _271  and  _272
REMARK  112  A    between atoms: _271  and  _274
REMARK  113  A    between atoms: _274  and  _275
REMARK  114  A    between atoms: _275  and  _276
REMARK  115  A    between atoms: _276  and  _277
REMARK  116  A    between atoms: _286  and  _288
REMARK  117  A    between atoms: _288  and  _289
REMARK  118  A    between atoms: _288  and  _291
REMARK  119  A    between atoms: _291  and  _292
REMARK  120  A    between atoms: _295  and  _297
REMARK  121  A    between atoms: _297  and  _298
REMARK  122  A    between atoms: _297  and  _300
REMARK  123  A    between atoms: _300  and  _301
REMARK  124  A    between atoms: _304  and  _306
REMARK  125  A    between atoms: _306  and  _307
REMARK  126  A    between atoms: _306  and  _309
REMARK  127  A    between atoms: _309  and  _310
REMARK  128  A    between atoms: _313  and  _315
REMARK  129  A    between atoms: _315  and  _316
REMARK  130  A    between atoms: _315  and  _318
REMARK  131  A    between atoms: _318  and  _319
REMARK  132  A    between atoms: _322  and  _324
REMARK  133  A    between atoms: _324  and  _325
REMARK  134  A    between atoms: _327  and  _329
REMARK  135  A    between atoms: _329  and  _330
REMARK  136  A    between atoms: _333  and  _335
REMARK  137  A    between atoms: _335  and  _336
REMARK  138  A    between atoms: _335  and  _338
REMARK  139  A    between atoms: _338  and  _339
REMARK  140  A    between atoms: _342  and  _344
REMARK  141  A    between atoms: _344  and  _345
REMARK  142  A    between atoms: _344  and  _347
REMARK  143  A    between atoms: _347  and  _348
REMARK  144  A    between atoms: _351  and  _353
REMARK  145  A    between atoms: _353  and  _354
REMARK  146  A    between atoms: _353  and  _356
REMARK  147  A    between atoms: _356  and  _357
REMARK  148  A    between atoms: _360  and  _362
REMARK  149  A    between atoms: _362  and  _363
REMARK  150  A    between atoms: _362  and  _365
REMARK  151  A    between atoms: _368  and  _370
REMARK  152  A    between atoms: _370  and  _371
REMARK  153  A    between atoms: _370  and  _373
REMARK  154  A    between atoms: _373  and  _374
REMARK  155  A    between atoms: _377  and  _379
REMARK  156  A    between atoms: _379  and  _380
REMARK  157  A    between atoms: _379  and  _382
REMARK  158  A    between atoms: _382  and  _383
REMARK  159  A    between atoms: _383  and  _384
REMARK  160  A    between atoms: _384  and  _385
REMARK  161  A    between atoms: _385  and  _386
REMARK  162  A    between atoms: _390  and  _392
REMARK  163  A    between atoms: _392  and  _393
REMARK  164  A    between atoms: _392  and  _395
REMARK  165  A    between atoms: _395  and  _396
REMARK  166  A    between atoms: _396  and  _397
REMARK  167  A    between atoms: _399  and  _401
REMARK  168  A    between atoms: _401  and  _402
REMARK  169  A    between atoms: _401  and  _404
REMARK  170  A    between atoms: _404  and  _405
REMARK  171  A    between atoms: _408  and  _410
REMARK  172  A    between atoms: _410  and  _411
REMARK  173  A    between atoms: _413  and  _415
REMARK  174  A    between atoms: _415  and  _416
REMARK  175  A    between atoms: _418  and  _420
REMARK  176  A    between atoms: _420  and  _421
REMARK  177  A    between atoms: _420  and  _423
REMARK  178  A    between atoms: _423  and  _424
REMARK  179  A    between atoms: _427  and  _429
REMARK  180  A    between atoms: _429  and  _430
REMARK  181  A    between atoms: _432  and  _434
REMARK  182  A    between atoms: _434  and  _435
REMARK  183  A    between atoms: _437  and  _439
REMARK  184  A    between atoms: _439  and  _440
REMARK  185  A    between atoms: _439  and  _442
REMARK  186  A    between atoms: _442  and  _443
REMARK  187  A    between atoms: _449  and  _451
REMARK  188  A    between atoms: _451  and  _452
REMARK  189  A    between atoms: _451  and  _454
REMARK  190  A    between atoms: _454  and  _455
REMARK  191  A    between atoms: _458  and  _460
REMARK  192  A    between atoms: _460  and  _461
REMARK  193  A    between atoms: _460  and  _463
REMARK  194  A    between atoms: _466  and  _468
REMARK  195  A    between atoms: _468  and  _469
REMARK  196  A    between atoms: _468  and  _471
REMARK  197  A    between atoms: _471  and  _472
REMARK  198  A    between atoms: _475  and  _477
REMARK  199  A    between atoms: _477  and  _478
REMARK  200  A    between atoms: _477  and  _480
REMARK  201  A    between atoms: _480  and  _481
REMARK  202  A    between atoms: _485  and  _486
REMARK  203  A    between atoms: _491  and  _493
REMARK  204  A    between atoms: _493  and  _494
REMARK  205  A    between atoms: _493  and  _496
REMARK  206  A    between atoms: _496  and  _497
REMARK  207  A    between atoms: _500  and  _502
REMARK  208  A    between atoms: _502  and  _503
REMARK  209  A    between atoms: _502  and  _505
REMARK  210  A    between atoms: _505  and  _506
REMARK  211  A    between atoms: _511  and  _513
REMARK  212  A    between atoms: _513  and  _514
REMARK  213  A    between atoms: _513  and  _516
REMARK  214  A    between atoms: _519  and  _521
REMARK  215  A    between atoms: _521  and  _522
REMARK  216  A    between atoms: _521  and  _524
REMARK  217  A    between atoms: _524  and  _525
REMARK  218  A    between atoms: _528  and  _530
REMARK  219  A    between atoms: _530  and  _531
REMARK  220  A    between atoms: _533  and  _535
REMARK  221  A    between atoms: _535  and  _536
REMARK  222  A    between atoms: _535  and  _538
REMARK  223  A    between atoms: _538  and  _539
REMARK  224  A    between atoms: _539  and  _540
REMARK  225  A    between atoms: _540  and  _541
REMARK  226  A    between atoms: _550  and  _552
REMARK  227  A    between atoms: _552  and  _553
REMARK  228  A    between atoms: _552  and  _555
REMARK  229  A    between atoms: _555  and  _556
REMARK                            x       y       z     vdW  Elec       q    Type
REMARK                         _______ _______ _______ _____ _____    ______ ____
ROOT
ATOM      1  O   HOH     1      11.173  -9.882  23.493  0.00  0.00    +0.000 OA
ENDROOT
TORSDOF 0
REMARK  Name = ../refined-set-2016/1k6p/1k6p_pocket.pdb
REMARK  229 active torsions:
REMARK  status: ('A' for Active; 'I' for Inactive)
REMARK    1  A    between atoms: _1  and  _3
REMARK    2  A    between atoms: _3  and  _4
REMARK    3  A    between atoms: _3  and  _6
REMARK    4  A    between atoms: _6  and  _7
REMARK    5  A    between atoms: _7  and  _8
REMARK    6  A    between atoms: _8  and  _9
REMARK    7  A    between atoms: _18  and  _20
REMARK    8  A    between atoms: _20  and  _21
REMARK    9  A    between atoms: _20  and  _23
REMARK   10  A    between atoms: _23  and  _24
REMARK   11  A    between atoms: _27  and  _29
REMARK   12  A    between atoms: _29  and  _30
REMARK   13  A    between atoms: _29  and  _32
REMARK   14  A    between atoms: _32  and  _33
REMARK   15  A    between atoms: _36  and  _38
REMARK   16  A    between atoms: _38  and  _39
REMARK   17  A    between atoms: _38  and  _41
REMARK   18  A    between atoms: _41  and  _42
REMARK   19  A    between atoms: _45  and  _47
REMARK   20  A    between atoms: _47  and  _48
REMARK   21  A    between atoms: _47  and  _50
REMARK   22  A    between atoms: _50  and  _51
REMARK   23  A    between atoms: _54  and  _56
REMARK   24  A    between atoms: _56  and  _57
REMARK   25  A    between atoms: _56  and  _59
REMARK   26  A    between atoms: _59  and  _60
REMARK   27  A    between atoms: _63  and  _65
REMARK   28  A    between atoms: _65  and  _66
REMARK   29  A    between atoms: _68  and  _70
REMARK   30  A    between atoms: _70  and  _71
REMARK   31  A    between atoms: _74  and  _76
REMARK   32  A    between atoms: _76  and  _77
REMARK   33  A    between atoms: _76  and  _79
REMARK   34  A    between atoms: _79  and  _80
REMARK   35  A    between atoms: _83  and  _85
REMARK   36  A    between atoms: _85  and  _86
REMARK   37  A    between atoms: _85  and  _88
REMARK   38  A    between atoms: _88  and  _89
REMARK   39  A    between atoms: _92  and  _94
REMARK   40  A    between atoms: _94  and  _95
REMARK   41  A    between atoms: _94  and  _97
REMARK   42  A    between atoms: _97  and  _98
REMARK   43  A    between atoms: _101  and  _103
REMARK   44  A    between atoms: _103  and  _104
REMARK   45  A    between atoms: _103  and  _106
REMARK   46  A    between atoms: _109  and  _111
REMARK   47  A    between atoms: _111  and  _112
REMARK   48  A    between atoms: _111  and  _114
REMARK   49  A    between atoms: _114  and  _115
REMARK   50  A    between atoms: _115  and  _116
REMARK   51  A    between atoms: _118  and  _120
REMARK   52  A    between atoms: _120  and  _121
REMARK   53  A    between atoms: _120  and  _123
REMARK   54  A    between atoms: _123  and  _124
REMARK   55  A    between atoms: _127  and  _129
REMARK   56  A    between atoms: _129  and  _130
REMARK   57  A    between atoms: _132  and  _134
REMARK   58  A    between atoms: _134  and  _135
REMARK   59  A    between atoms: _137  and  _139
REMARK   60  A    between atoms: _139  and  _140
REMARK   61  A    between atoms: _139  and  _142
REMARK   62  A    between atoms: _142  and  _143
REMARK   63  A    between atoms: _146  and  _148
REMARK   64  A    between atoms: _148  and  _149
REMARK   65  A    between atoms: _151  and  _153
REMARK   66  A    between atoms: _153  and  _154
REMARK   67  A    between atoms: _156  and  _158
REMARK   68  A    between atoms: _158  and  _159
REMARK   69  A    between atoms: _158  and  _161
REMARK   70  A    between atoms: _161  and  _162
REMARK   71  A    between atoms: _168  and  _170
REMARK   72  A    between atoms: _170  and  _171
REMARK   73  A    between atoms: _170  and  _173
REMARK   74  A    between atoms: _173  and  _174
REMARK   75  A    between atoms: _177  and  _179
REMARK   76  A    between atoms: _179  and  _180
REMARK   77  A    between atoms: _179  and  _182
REMARK   78  A    between atoms: _185  and  _187
REMARK   79  A    between atoms: _187  and  _188
REMARK   80  A    between atoms: _187  and  _190
REMARK   81  A    between atoms: _190  and  _191
REMARK   82  A    between atoms: _194  and  _196
REMARK   83  A    between atoms: _196  and  _197
REMARK   84  A    between atoms: _196  and  _199
REMARK   85  A    between atoms: _199  and  _200
REMARK   86  A    between atoms: _204  and  _205
REMARK   87  A    between atoms: _210  and  _212
REMARK   88  A    between atoms: _212  and  _213
REMARK   89  A    between atoms: _212  and  _215
REMARK   90  A    between atoms: _215  and  _216
REMARK   91  A    between atoms: _219  and  _221
REMARK   92  A    between atoms: _221  and  _222
REMARK   93  A    between atoms: _221  and  _224
REMARK   94  A    between atoms: _224  and  _225
REMARK   95  A    between atoms: _230  and  _232
REMARK   96  A    between atoms: _232  and  _233
REMARK   97  A    between atoms: _232  and  _235
REMARK   98  A    between atoms: _238  and  _240
REMARK   99  A    between atoms: _240  and  _241
REMARK  100  A    between atoms: _240  and  _243
REMARK  101  A    between atoms: _243  and  _244
REMARK  102  A    between atoms: _247  and  _249
REMARK  103  A    between atoms: _249  and  _250
REMARK  104  A    between atoms: _252  and  _254
REMARK  105  A    between atoms: _254  and  _255
REMARK  106  A    between atoms: _254  and  _257
REMARK  107  A    between atoms: _257  and  _258
REMARK  108  A    between atoms: _258  and  _259
REMARK  109  A    between atoms: _259  and  _260
REMARK  110  A    between atoms: _269  and  _271
REMARK  111  A    between atoms: _271  and  _272
REMARK  112  A    between atoms: _271  and  _274
REMARK  113  A    between atoms: _274  and  _275
REMARK  114  A    between atoms: _275  and  _276
REMARK  115  A    between atoms: _276  and  _277
REMARK  116  A    between atoms: _286  and  _288
REMARK  117  A    between atoms: _288  and  _289
REMARK  118  A    between atoms: _288  and  _291
REMARK  119  A    between atoms: _291  and  _292
REMARK  120  A    between atoms: _295  and  _297
REMARK  121  A    between atoms: _297  and  _298
REMARK  122  A    between atoms: _297  and  _300
REMARK  123  A    between atoms: _300  and  _301
REMARK  124  A    between atoms: _304  and  _306
REMARK  125  A    between atoms: _306  and  _307
REMARK  126  A    between atoms: _306  and  _309
REMARK  127  A    between atoms: _309  and  _310
REMARK  128  A    between atoms: _313  and  _315
REMARK  129  A    between atoms: _315  and  _316
REMARK  130  A    between atoms: _315  and  _318
REMARK  131  A    between atoms: _318  and  _319
REMARK  132  A    between atoms: _322  and  _324
REMARK  133  A    between atoms: _324  and  _325
REMARK  134  A    between atoms: _327  and  _329
REMARK  135  A    between atoms: _329  and  _330
REMARK  136  A    between atoms: _333  and  _335
REMARK  137  A    between atoms: _335  and  _336
REMARK  138  A    between atoms: _335  and  _338
REMARK  139  A    between atoms: _338  and  _339
REMARK  140  A    between atoms: _342  and  _344
REMARK  141  A    between atoms: _344  and  _345
REMARK  142  A    between atoms: _344  and  _347
REMARK  143  A    between atoms: _347  and  _348
REMARK  144  A    between atoms: _351  and  _353
REMARK  145  A    between atoms: _353  and  _354
REMARK  146  A    between atoms: _353  and  _356
REMARK  147  A    between atoms: _356  and  _357
REMARK  148  A    between atoms: _360  and  _362
REMARK  149  A    between atoms: _362  and  _363
REMARK  150  A    between atoms: _362  and  _365
REMARK  151  A    between atoms: _368  and  _370
REMARK  152  A    between atoms: _370  and  _371
REMARK  153  A    between atoms: _370  and  _373
REMARK  154  A    between atoms: _373  and  _374
REMARK  155  A    between atoms: _377  and  _379
REMARK  156  A    between atoms: _379  and  _380
REMARK  157  A    between atoms: _379  and  _382
REMARK  158  A    between atoms: _382  and  _383
REMARK  159  A    between atoms: _383  and  _384
REMARK  160  A    between atoms: _384  and  _385
REMARK  161  A    between atoms: _385  and  _386
REMARK  162  A    between atoms: _390  and  _392
REMARK  163  A    between atoms: _392  and  _393
REMARK  164  A    between atoms: _392  and  _395
REMARK  165  A    between atoms: _395  and  _396
REMARK  166  A    between atoms: _396  and  _397
REMARK  167  A    between atoms: _399  and  _401
REMARK  168  A    between atoms: _401  and  _402
REMARK  169  A    between atoms: _401  and  _404
REMARK  170  A    between atoms: _404  and  _405
REMARK  171  A    between atoms: _408  and  _410
REMARK  172  A    between atoms: _410  and  _411
REMARK  173  A    between atoms: _413  and  _415
REMARK  174  A    between atoms: _415  and  _416
REMARK  175  A    between atoms: _418  and  _420
REMARK  176  A    between atoms: _420  and  _421
REMARK  177  A    between atoms: _420  and  _423
REMARK  178  A    between atoms: _423  and  _424
REMARK  179  A    between atoms: _427  and  _429
REMARK  180  A    between atoms: _429  and  _430
REMARK  181  A    between atoms: _432  and  _434
REMARK  182  A    between atoms: _434  and  _435
REMARK  183  A    between atoms: _437  and  _439
REMARK  184  A    between atoms: _439  and  _440
REMARK  185  A    between atoms: _439  and  _442
REMARK  186  A    between atoms: _442  and  _443
REMARK  187  A    between atoms: _449  and  _451
REMARK  188  A    between atoms: _451  and  _452
REMARK  189  A    between atoms: _451  and  _454
REMARK  190  A    between atoms: _454  and  _455
REMARK  191  A    between atoms: _458  and  _460
REMARK  192  A    between atoms: _460  and  _461
REMARK  193  A    between atoms: _460  and  _463
REMARK  194  A    between atoms: _466  and  _468
REMARK  195  A    between atoms: _468  and  _469
REMARK  196  A    between atoms: _468  and  _471
REMARK  197  A    between atoms: _471  and  _472
REMARK  198  A    between atoms: _475  and  _477
REMARK  199  A    between atoms: _477  and  _478
REMARK  200  A    between atoms: _477  and  _480
REMARK  201  A    between atoms: _480  and  _481
REMARK  202  A    between atoms: _485  and  _486
REMARK  203  A    between atoms: _491  and  _493
REMARK  204  A    between atoms: _493  and  _494
REMARK  205  A    between atoms: _493  and  _496
REMARK  206  A    between atoms: _496  and  _497
REMARK  207  A    between atoms: _500  and  _502
REMARK  208  A    between atoms: _502  and  _503
REMARK  209  A    between atoms: _502  and  _505
REMARK  210  A    between atoms: _505  and  _506
REMARK  211  A    between atoms: _511  and  _513
REMARK  212  A    between atoms: _513  and  _514
REMARK  213  A    between atoms: _513  and  _516
REMARK  214  A    between atoms: _519  and  _521
REMARK  215  A    between atoms: _521  and  _522
REMARK  216  A    between atoms: _521  and  _524
REMARK  217  A    between atoms: _524  and  _525
REMARK  218  A    between atoms: _528  and  _530
REMARK  219  A    between atoms: _530  and  _531
REMARK  220  A    between atoms: _533  and  _535
REMARK  221  A    between atoms: _535  and  _536
REMARK  222  A    between atoms: _535  and  _538
REMARK  223  A    between atoms: _538  and  _539
REMARK  224  A    between atoms: _539  and  _540
REMARK  225  A    between atoms: _540  and  _541
REMARK  226  A    between atoms: _550  and  _552
REMARK  227  A    between atoms: _552  and  _553
REMARK  228  A    between atoms: _552  and  _555
REMARK  229  A    between atoms: _555  and  _556
REMARK                            x       y       z     vdW  Elec       q    Type
REMARK                         _______ _______ _______ _____ _____    ______ ____
ROOT
ATOM      1  O   HOH     1      10.837 -13.846  20.251  0.00  0.00    +0.000 OA
ENDROOT
TORSDOF 0
REMARK  Name = ../refined-set-2016/1k6p/1k6p_pocket.pdb
REMARK  229 active torsions:
REMARK  status: ('A' for Active; 'I' for Inactive)
REMARK    1  A    between atoms: _1  and  _3
REMARK    2  A    between atoms: _3  and  _4
REMARK    3  A    between atoms: _3  and  _6
REMARK    4  A    between atoms: _6  and  _7
REMARK    5  A    between atoms: _7  and  _8
REMARK    6  A    between atoms: _8  and  _9
REMARK    7  A    between atoms: _18  and  _20
REMARK    8  A    between atoms: _20  and  _21
REMARK    9  A    between atoms: _20  and  _23
REMARK   10  A    between atoms: _23  and  _24
REMARK   11  A    between atoms: _27  and  _29
REMARK   12  A    between atoms: _29  and  _30
REMARK   13  A    between atoms: _29  and  _32
REMARK   14  A    between atoms: _32  and  _33
REMARK   15  A    between atoms: _36  and  _38
REMARK   16  A    between atoms: _38  and  _39
REMARK   17  A    between atoms: _38  and  _41
REMARK   18  A    between atoms: _41  and  _42
REMARK   19  A    between atoms: _45  and  _47
REMARK   20  A    between atoms: _47  and  _48
REMARK   21  A    between atoms: _47  and  _50
REMARK   22  A    between atoms: _50  and  _51
REMARK   23  A    between atoms: _54  and  _56
REMARK   24  A    between atoms: _56  and  _57
REMARK   25  A    between atoms: _56  and  _59
REMARK   26  A    between atoms: _59  and  _60
REMARK   27  A    between atoms: _63  and  _65
REMARK   28  A    between atoms: _65  and  _66
REMARK   29  A    between atoms: _68  and  _70
REMARK   30  A    between atoms: _70  and  _71
REMARK   31  A    between atoms: _74  and  _76
REMARK   32  A    between atoms: _76  and  _77
REMARK   33  A    between atoms: _76  and  _79
REMARK   34  A    between atoms: _79  and  _80
REMARK   35  A    between atoms: _83  and  _85
REMARK   36  A    between atoms: _85  and  _86
REMARK   37  A    between atoms: _85  and  _88
REMARK   38  A    between atoms: _88  and  _89
REMARK   39  A    between atoms: _92  and  _94
REMARK   40  A    between atoms: _94  and  _95
REMARK   41  A    between atoms: _94  and  _97
REMARK   42  A    between atoms: _97  and  _98
REMARK   43  A    between atoms: _101  and  _103
REMARK   44  A    between atoms: _103  and  _104
REMARK   45  A    between atoms: _103  and  _106
REMARK   46  A    between atoms: _109  and  _111
REMARK   47  A    between atoms: _111  and  _112
REMARK   48  A    between atoms: _111  and  _114
REMARK   49  A    between atoms: _114  and  _115
REMARK   50  A    between atoms: _115  and  _116
REMARK   51  A    between atoms: _118  and  _120
REMARK   52  A    between atoms: _120  and  _121
REMARK   53  A    between atoms: _120  and  _123
REMARK   54  A    between atoms: _123  and  _124
REMARK   55  A    between atoms: _127  and  _129
REMARK   56  A    between atoms: _129  and  _130
REMARK   57  A    between atoms: _132  and  _134
REMARK   58  A    between atoms: _134  and  _135
REMARK   59  A    between atoms: _137  and  _139
REMARK   60  A    between atoms: _139  and  _140
REMARK   61  A    between atoms: _139  and  _142
REMARK   62  A    between atoms: _142  and  _143
REMARK   63  A    between atoms: _146  and  _148
REMARK   64  A    between atoms: _148  and  _149
REMARK   65  A    between atoms: _151  and  _153
REMARK   66  A    between atoms: _153  and  _154
REMARK   67  A    between atoms: _156  and  _158
REMARK   68  A    between atoms: _158  and  _159
REMARK   69  A    between atoms: _158  and  _161
REMARK   70  A    between atoms: _161  and  _162
REMARK   71  A    between atoms: _168  and  _170
REMARK   72  A    between atoms: _170  and  _171
REMARK   73  A    between atoms: _170  and  _173
REMARK   74  A    between atoms: _173  and  _174
REMARK   75  A    between atoms: _177  and  _179
REMARK   76  A    between atoms: _179  and  _180
REMARK   77  A    between atoms: _179  and  _182
REMARK   78  A    between atoms: _185  and  _187
REMARK   79  A    between atoms: _187  and  _188
REMARK   80  A    between atoms: _187  and  _190
REMARK   81  A    between atoms: _190  and  _191
REMARK   82  A    between atoms: _194  and  _196
REMARK   83  A    between atoms: _196  and  _197
REMARK   84  A    between atoms: _196  and  _199
REMARK   85  A    between atoms: _199  and  _200
REMARK   86  A    between atoms: _204  and  _205
REMARK   87  A    between atoms: _210  and  _212
REMARK   88  A    between atoms: _212  and  _213
REMARK   89  A    between atoms: _212  and  _215
REMARK   90  A    between atoms: _215  and  _216
REMARK   91  A    between atoms: _219  and  _221
REMARK   92  A    between atoms: _221  and  _222
REMARK   93  A    between atoms: _221  and  _224
REMARK   94  A    between atoms: _224  and  _225
REMARK   95  A    between atoms: _230  and  _232
REMARK   96  A    between atoms: _232  and  _233
REMARK   97  A    between atoms: _232  and  _235
REMARK   98  A    between atoms: _238  and  _240
REMARK   99  A    between atoms: _240  and  _241
REMARK  100  A    between atoms: _240  and  _243
REMARK  101  A    between atoms: _243  and  _244
REMARK  102  A    between atoms: _247  and  _249
REMARK  103  A    between atoms: _249  and  _250
REMARK  104  A    between atoms: _252  and  _254
REMARK  105  A    between atoms: _254  and  _255
REMARK  106  A    between atoms: _254  and  _257
REMARK  107  A    between atoms: _257  and  _258
REMARK  108  A    between atoms: _258  and  _259
REMARK  109  A    between atoms: _259  and  _260
REMARK  110  A    between atoms: _269  and  _271
REMARK  111  A    between atoms: _271  and  _272
REMARK  112  A    between atoms: _271  and  _274
REMARK  113  A    between atoms: _274  and  _275
REMARK  114  A    between atoms: _275  and  _276
REMARK  115  A    between atoms: _276  and  _277
REMARK  116  A    between atoms: _286  and  _288
REMARK  117  A    between atoms: _288  and  _289
REMARK  118  A    between atoms: _288  and  _291
REMARK  119  A    between atoms: _291  and  _292
REMARK  120  A    between atoms: _295  and  _297
REMARK  121  A    between atoms: _297  and  _298
REMARK  122  A    between atoms: _297  and  _300
REMARK  123  A    between atoms: _300  and  _301
REMARK  124  A    between atoms: _304  and  _306
REMARK  125  A    between atoms: _306  and  _307
REMARK  126  A    between atoms: _306  and  _309
REMARK  127  A    between atoms: _309  and  _310
REMARK  128  A    between atoms: _313  and  _315
REMARK  129  A    between atoms: _315  and  _316
REMARK  130  A    between atoms: _315  and  _318
REMARK  131  A    between atoms: _318  and  _319
REMARK  132  A    between atoms: _322  and  _324
REMARK  133  A    between atoms: _324  and  _325
REMARK  134  A    between atoms: _327  and  _329
REMARK  135  A    between atoms: _329  and  _330
REMARK  136  A    between atoms: _333  and  _335
REMARK  137  A    between atoms: _335  and  _336
REMARK  138  A    between atoms: _335  and  _338
REMARK  139  A    between atoms: _338  and  _339
REMARK  140  A    between atoms: _342  and  _344
REMARK  141  A    between atoms: _344  and  _345
REMARK  142  A    between atoms: _344  and  _347
REMARK  143  A    between atoms: _347  and  _348
REMARK  144  A    between atoms: _351  and  _353
REMARK  145  A    between atoms: _353  and  _354
REMARK  146  A    between atoms: _353  and  _356
REMARK  147  A    between atoms: _356  and  _357
REMARK  148  A    between atoms: _360  and  _362
REMARK  149  A    between atoms: _362  and  _363
REMARK  150  A    between atoms: _362  and  _365
REMARK  151  A    between atoms: _368  and  _370
REMARK  152  A    between atoms: _370  and  _371
REMARK  153  A    between atoms: _370  and  _373
REMARK  154  A    between atoms: _373  and  _374
REMARK  155  A    between atoms: _377  and  _379
REMARK  156  A    between atoms: _379  and  _380
REMARK  157  A    between atoms: _379  and  _382
REMARK  158  A    between atoms: _382  and  _383
REMARK  159  A    between atoms: _383  and  _384
REMARK  160  A    between atoms: _384  and  _385
REMARK  161  A    between atoms: _385  and  _386
REMARK  162  A    between atoms: _390  and  _392
REMARK  163  A    between atoms: _392  and  _393
REMARK  164  A    between atoms: _392  and  _395
REMARK  165  A    between atoms: _395  and  _396
REMARK  166  A    between atoms: _396  and  _397
REMARK  167  A    between atoms: _399  and  _401
REMARK  168  A    between atoms: _401  and  _402
REMARK  169  A    between atoms: _401  and  _404
REMARK  170  A    between atoms: _404  and  _405
REMARK  171  A    between atoms: _408  and  _410
REMARK  172  A    between atoms: _410  and  _411
REMARK  173  A    between atoms: _413  and  _415
REMARK  174  A    between atoms: _415  and  _416
REMARK  175  A    between atoms: _418  and  _420
REMARK  176  A    between atoms: _420  and  _421
REMARK  177  A    between atoms: _420  and  _423
REMARK  178  A    between atoms: _423  and  _424
REMARK  179  A    between atoms: _427  and  _429
REMARK  180  A    between atoms: _429  and  _430
REMARK  181  A    between atoms: _432  and  _434
REMARK  182  A    between atoms: _434  and  _435
REMARK  183  A    between atoms: _437  and  _439
REMARK  184  A    between atoms: _439  and  _440
REMARK  185  A    between atoms: _439  and  _442
REMARK  186  A    between atoms: _442  and  _443
REMARK  187  A    between atoms: _449  and  _451
REMARK  188  A    between atoms: _451  and  _452
REMARK  189  A    between atoms: _451  and  _454
REMARK  190  A    between atoms: _454  and  _455
REMARK  191  A    between atoms: _458  and  _460
REMARK  192  A    between atoms: _460  and  _461
REMARK  193  A    between atoms: _460  and  _463
REMARK  194  A    between atoms: _466  and  _468
REMARK  195  A    between atoms: _468  and  _469
REMARK  196  A    between atoms: _468  and  _471
REMARK  197  A    between atoms: _471  and  _472
REMARK  198  A    between atoms: _475  and  _477
REMARK  199  A    between atoms: _477  and  _478
REMARK  200  A    between atoms: _477  and  _480
REMARK  201  A    between atoms: _480  and  _481
REMARK  202  A    between atoms: _485  and  _486
REMARK  203  A    between atoms: _491  and  _493
REMARK  204  A    between atoms: _493  and  _494
REMARK  205  A    between atoms: _493  and  _496
REMARK  206  A    between atoms: _496  and  _497
REMARK  207  A    between atoms: _500  and  _502
REMARK  208  A    between atoms: _502  and  _503
REMARK  209  A    between atoms: _502  and  _505
REMARK  210  A    between atoms: _505  and  _506
REMARK  211  A    between atoms: _511  and  _513
REMARK  212  A    between atoms: _513  and  _514
REMARK  213  A    between atoms: _513  and  _516
REMARK  214  A    between atoms: _519  and  _521
REMARK  215  A    between atoms: _521  and  _522
REMARK  216  A    between atoms: _521  and  _524
REMARK  217  A    between atoms: _524  and  _525
REMARK  218  A    between atoms: _528  and  _530
REMARK  219  A    between atoms: _530  and  _531
REMARK  220  A    between atoms: _533  and  _535
REMARK  221  A    between atoms: _535  and  _536
REMARK  222  A    between atoms: _535  and  _538
REMARK  223  A    between atoms: _538  and  _539
REMARK  224  A    between atoms: _539  and  _540
REMARK  225  A    between atoms: _540  and  _541
REMARK  226  A    between atoms: _550  and  _552
REMARK  227  A    between atoms: _552  and  _553
REMARK  228  A    between atoms: _552  and  _555
REMARK  229  A    between atoms: _555  and  _556
REMARK                            x       y       z     vdW  Elec       q    Type
REMARK                         _______ _______ _______ _____ _____    ______ ____
ROOT
ATOM      1  O   HOH     1       6.272   6.883   5.971  0.00  0.00    +0.000 OA
ENDROOT
TORSDOF 0
REMARK  Name = ../refined-set-2016/1k6p/1k6p_pocket.pdb
REMARK  229 active torsions:
REMARK  status: ('A' for Active; 'I' for Inactive)
REMARK    1  A    between atoms: _1  and  _3
REMARK    2  A    between atoms: _3  and  _4
REMARK    3  A    between atoms: _3  and  _6
REMARK    4  A    between atoms: _6  and  _7
REMARK    5  A    between atoms: _7  and  _8
REMARK    6  A    between atoms: _8  and  _9
REMARK    7  A    between atoms: _18  and  _20
REMARK    8  A    between atoms: _20  and  _21
REMARK    9  A    between atoms: _20  and  _23
REMARK   10  A    between atoms: _23  and  _24
REMARK   11  A    between atoms: _27  and  _29
REMARK   12  A    between atoms: _29  and  _30
REMARK   13  A    between atoms: _29  and  _32
REMARK   14  A    between atoms: _32  and  _33
REMARK   15  A    between atoms: _36  and  _38
REMARK   16  A    between atoms: _38  and  _39
REMARK   17  A    between atoms: _38  and  _41
REMARK   18  A    between atoms: _41  and  _42
REMARK   19  A    between atoms: _45  and  _47
REMARK   20  A    between atoms: _47  and  _48
REMARK   21  A    between atoms: _47  and  _50
REMARK   22  A    between atoms: _50  and  _51
REMARK   23  A    between atoms: _54  and  _56
REMARK   24  A    between atoms: _56  and  _57
REMARK   25  A    between atoms: _56  and  _59
REMARK   26  A    between atoms: _59  and  _60
REMARK   27  A    between atoms: _63  and  _65
REMARK   28  A    between atoms: _65  and  _66
REMARK   29  A    between atoms: _68  and  _70
REMARK   30  A    between atoms: _70  and  _71
REMARK   31  A    between atoms: _74  and  _76
REMARK   32  A    between atoms: _76  and  _77
REMARK   33  A    between atoms: _76  and  _79
REMARK   34  A    between atoms: _79  and  _80
REMARK   35  A    between atoms: _83  and  _85
REMARK   36  A    between atoms: _85  and  _86
REMARK   37  A    between atoms: _85  and  _88
REMARK   38  A    between atoms: _88  and  _89
REMARK   39  A    between atoms: _92  and  _94
REMARK   40  A    between atoms: _94  and  _95
REMARK   41  A    between atoms: _94  and  _97
REMARK   42  A    between atoms: _97  and  _98
REMARK   43  A    between atoms: _101  and  _103
REMARK   44  A    between atoms: _103  and  _104
REMARK   45  A    between atoms: _103  and  _106
REMARK   46  A    between atoms: _109  and  _111
REMARK   47  A    between atoms: _111  and  _112
REMARK   48  A    between atoms: _111  and  _114
REMARK   49  A    between atoms: _114  and  _115
REMARK   50  A    between atoms: _115  and  _116
REMARK   51  A    between atoms: _118  and  _120
REMARK   52  A    between atoms: _120  and  _121
REMARK   53  A    between atoms: _120  and  _123
REMARK   54  A    between atoms: _123  and  _124
REMARK   55  A    between atoms: _127  and  _129
REMARK   56  A    between atoms: _129  and  _130
REMARK   57  A    between atoms: _132  and  _134
REMARK   58  A    between atoms: _134  and  _135
REMARK   59  A    between atoms: _137  and  _139
REMARK   60  A    between atoms: _139  and  _140
REMARK   61  A    between atoms: _139  and  _142
REMARK   62  A    between atoms: _142  and  _143
REMARK   63  A    between atoms: _146  and  _148
REMARK   64  A    between atoms: _148  and  _149
REMARK   65  A    between atoms: _151  and  _153
REMARK   66  A    between atoms: _153  and  _154
REMARK   67  A    between atoms: _156  and  _158
REMARK   68  A    between atoms: _158  and  _159
REMARK   69  A    between atoms: _158  and  _161
REMARK   70  A    between atoms: _161  and  _162
REMARK   71  A    between atoms: _168  and  _170
REMARK   72  A    between atoms: _170  and  _171
REMARK   73  A    between atoms: _170  and  _173
REMARK   74  A    between atoms: _173  and  _174
REMARK   75  A    between atoms: _177  and  _179
REMARK   76  A    between atoms: _179  and  _180
REMARK   77  A    between atoms: _179  and  _182
REMARK   78  A    between atoms: _185  and  _187
REMARK   79  A    between atoms: _187  and  _188
REMARK   80  A    between atoms: _187  and  _190
REMARK   81  A    between atoms: _190  and  _191
REMARK   82  A    between atoms: _194  and  _196
REMARK   83  A    between atoms: _196  and  _197
REMARK   84  A    between atoms: _196  and  _199
REMARK   85  A    between atoms: _199  and  _200
REMARK   86  A    between atoms: _204  and  _205
REMARK   87  A    between atoms: _210  and  _212
REMARK   88  A    between atoms: _212  and  _213
REMARK   89  A    between atoms: _212  and  _215
REMARK   90  A    between atoms: _215  and  _216
REMARK   91  A    between atoms: _219  and  _221
REMARK   92  A    between atoms: _221  and  _222
REMARK   93  A    between atoms: _221  and  _224
REMARK   94  A    between atoms: _224  and  _225
REMARK   95  A    between atoms: _230  and  _232
REMARK   96  A    between atoms: _232  and  _233
REMARK   97  A    between atoms: _232  and  _235
REMARK   98  A    between atoms: _238  and  _240
REMARK   99  A    between atoms: _240  and  _241
REMARK  100  A    between atoms: _240  and  _243
REMARK  101  A    between atoms: _243  and  _244
REMARK  102  A    between atoms: _247  and  _249
REMARK  103  A    between atoms: _249  and  _250
REMARK  104  A    between atoms: _252  and  _254
REMARK  105  A    between atoms: _254  and  _255
REMARK  106  A    between atoms: _254  and  _257
REMARK  107  A    between atoms: _257  and  _258
REMARK  108  A    between atoms: _258  and  _259
REMARK  109  A    between atoms: _259  and  _260
REMARK  110  A    between atoms: _269  and  _271
REMARK  111  A    between atoms: _271  and  _272
REMARK  112  A    between atoms: _271  and  _274
REMARK  113  A    between atoms: _274  and  _275
REMARK  114  A    between atoms: _275  and  _276
REMARK  115  A    between atoms: _276  and  _277
REMARK  116  A    between atoms: _286  and  _288
REMARK  117  A    between atoms: _288  and  _289
REMARK  118  A    between atoms: _288  and  _291
REMARK  119  A    between atoms: _291  and  _292
REMARK  120  A    between atoms: _295  and  _297
REMARK  121  A    between atoms: _297  and  _298
REMARK  122  A    between atoms: _297  and  _300
REMARK  123  A    between atoms: _300  and  _301
REMARK  124  A    between atoms: _304  and  _306
REMARK  125  A    between atoms: _306  and  _307
REMARK  126  A    between atoms: _306  and  _309
REMARK  127  A    between atoms: _309  and  _310
REMARK  128  A    between atoms: _313  and  _315
REMARK  129  A    between atoms: _315  and  _316
REMARK  130  A    between atoms: _315  and  _318
REMARK  131  A    between atoms: _318  and  _319
REMARK  132  A    between atoms: _322  and  _324
REMARK  133  A    between atoms: _324  and  _325
REMARK  134  A    between atoms: _327  and  _329
REMARK  135  A    between atoms: _329  and  _330
REMARK  136  A    between atoms: _333  and  _335
REMARK  137  A    between atoms: _335  and  _336
REMARK  138  A    between atoms: _335  and  _338
REMARK  139  A    between atoms: _338  and  _339
REMARK  140  A    between atoms: _342  and  _344
REMARK  141  A    between atoms: _344  and  _345
REMARK  142  A    between atoms: _344  and  _347
REMARK  143  A    between atoms: _347  and  _348
REMARK  144  A    between atoms: _351  and  _353
REMARK  145  A    between atoms: _353  and  _354
REMARK  146  A    between atoms: _353  and  _356
REMARK  147  A    between atoms: _356  and  _357
REMARK  148  A    between atoms: _360  and  _362
REMARK  149  A    between atoms: _362  and  _363
REMARK  150  A    between atoms: _362  and  _365
REMARK  151  A    between atoms: _368  and  _370
REMARK  152  A    between atoms: _370  and  _371
REMARK  153  A    between atoms: _370  and  _373
REMARK  154  A    between atoms: _373  and  _374
REMARK  155  A    between atoms: _377  and  _379
REMARK  156  A    between atoms: _379  and  _380
REMARK  157  A    between atoms: _379  and  _382
REMARK  158  A    between atoms: _382  and  _383
REMARK  159  A    between atoms: _383  and  _384
REMARK  160  A    between atoms: _384  and  _385
REMARK  161  A    between atoms: _385  and  _386
REMARK  162  A    between atoms: _390  and  _392
REMARK  163  A    between atoms: _392  and  _393
REMARK  164  A    between atoms: _392  and  _395
REMARK  165  A    between atoms: _395  and  _396
REMARK  166  A    between atoms: _396  and  _397
REMARK  167  A    between atoms: _399  and  _401
REMARK  168  A    between atoms: _401  and  _402
REMARK  169  A    between atoms: _401  and  _404
REMARK  170  A    between atoms: _404  and  _405
REMARK  171  A    between atoms: _408  and  _410
REMARK  172  A    between atoms: _410  and  _411
REMARK  173  A    between atoms: _413  and  _415
REMARK  174  A    between atoms: _415  and  _416
REMARK  175  A    between atoms: _418  and  _420
REMARK  176  A    between atoms: _420  and  _421
REMARK  177  A    between atoms: _420  and  _423
REMARK  178  A    between atoms: _423  and  _424
REMARK  179  A    between atoms: _427  and  _429
REMARK  180  A    between atoms: _429  and  _430
REMARK  181  A    between atoms: _432  and  _434
REMARK  182  A    between atoms: _434  and  _435
REMARK  183  A    between atoms: _437  and  _439
REMARK  184  A    between atoms: _439  and  _440
REMARK  185  A    between atoms: _439  and  _442
REMARK  186  A    between atoms: _442  and  _443
REMARK  187  A    between atoms: _449  and  _451
REMARK  188  A    between atoms: _451  and  _452
REMARK  189  A    between atoms: _451  and  _454
REMARK  190  A    between atoms: _454  and  _455
REMARK  191  A    between atoms: _458  and  _460
REMARK  192  A    between atoms: _460  and  _461
REMARK  193  A    between atoms: _460  and  _463
REMARK  194  A    between atoms: _466  and  _468
REMARK  195  A    between atoms: _468  and  _469
REMARK  196  A    between atoms: _468  and  _471
REMARK  197  A    between atoms: _471  and  _472
REMARK  198  A    between atoms: _475  and  _477
REMARK  199  A    between atoms: _477  and  _478
REMARK  200  A    between atoms: _477  and  _480
REMARK  201  A    between atoms: _480  and  _481
REMARK  202  A    between atoms: _485  and  _486
REMARK  203  A    between atoms: _491  and  _493
REMARK  204  A    between atoms: _493  and  _494
REMARK  205  A    between atoms: _493  and  _496
REMARK  206  A    between atoms: _496  and  _497
REMARK  207  A    between atoms: _500  and  _502
REMARK  208  A    between atoms: _502  and  _503
REMARK  209  A    between atoms: _502  and  _505
REMARK  210  A    between atoms: _505  and  _506
REMARK  211  A    between atoms: _511  and  _513
REMARK  212  A    between atoms: _513  and  _514
REMARK  213  A    between atoms: _513  and  _516
REMARK  214  A    between atoms: _519  and  _521
REMARK  215  A    between atoms: _521  and  _522
REMARK  216  A    between atoms: _521  and  _524
REMARK  217  A    between atoms: _524  and  _525
REMARK  218  A    between atoms: _528  and  _530
REMARK  219  A    between atoms: _530  and  _531
REMARK  220  A    between atoms: _533  and  _535
REMARK  221  A    between atoms: _535  and  _536
REMARK  222  A    between atoms: _535  and  _538
REMARK  223  A    between atoms: _538  and  _539
REMARK  224  A    between atoms: _539  and  _540
REMARK  225  A    between atoms: _540  and  _541
REMARK  226  A    between atoms: _550  and  _552
REMARK  227  A    between atoms: _552  and  _553
REMARK  228  A    between atoms: _552  and  _555
REMARK  229  A    between atoms: _555  and  _556
REMARK                            x       y       z     vdW  Elec       q    Type
REMARK                         _______ _______ _______ _____ _____    ______ ____
ROOT
ATOM      1  O   HOH     1       4.783   7.587  15.611  0.00  0.00    +0.000 OA
ENDROOT
TORSDOF 0
REMARK  Name = ../refined-set-2016/1k6p/1k6p_pocket.pdb
REMARK  229 active torsions:
REMARK  status: ('A' for Active; 'I' for Inactive)
REMARK    1  A    between atoms: _1  and  _3
REMARK    2  A    between atoms: _3  and  _4
REMARK    3  A    between atoms: _3  and  _6
REMARK    4  A    between atoms: _6  and  _7
REMARK    5  A    between atoms: _7  and  _8
REMARK    6  A    between atoms: _8  and  _9
REMARK    7  A    between atoms: _18  and  _20
REMARK    8  A    between atoms: _20  and  _21
REMARK    9  A    between atoms: _20  and  _23
REMARK   10  A    between atoms: _23  and  _24
REMARK   11  A    between atoms: _27  and  _29
REMARK   12  A    between atoms: _29  and  _30
REMARK   13  A    between atoms: _29  and  _32
REMARK   14  A    between atoms: _32  and  _33
REMARK   15  A    between atoms: _36  and  _38
REMARK   16  A    between atoms: _38  and  _39
REMARK   17  A    between atoms: _38  and  _41
REMARK   18  A    between atoms: _41  and  _42
REMARK   19  A    between atoms: _45  and  _47
REMARK   20  A    between atoms: _47  and  _48
REMARK   21  A    between atoms: _47  and  _50
REMARK   22  A    between atoms: _50  and  _51
REMARK   23  A    between atoms: _54  and  _56
REMARK   24  A    between atoms: _56  and  _57
REMARK   25  A    between atoms: _56  and  _59
REMARK   26  A    between atoms: _59  and  _60
REMARK   27  A    between atoms: _63  and  _65
REMARK   28  A    between atoms: _65  and  _66
REMARK   29  A    between atoms: _68  and  _70
REMARK   30  A    between atoms: _70  and  _71
REMARK   31  A    between atoms: _74  and  _76
REMARK   32  A    between atoms: _76  and  _77
REMARK   33  A    between atoms: _76  and  _79
REMARK   34  A    between atoms: _79  and  _80
REMARK   35  A    between atoms: _83  and  _85
REMARK   36  A    between atoms: _85  and  _86
REMARK   37  A    between atoms: _85  and  _88
REMARK   38  A    between atoms: _88  and  _89
REMARK   39  A    between atoms: _92  and  _94
REMARK   40  A    between atoms: _94  and  _95
REMARK   41  A    between atoms: _94  and  _97
REMARK   42  A    between atoms: _97  and  _98
REMARK   43  A    between atoms: _101  and  _103
REMARK   44  A    between atoms: _103  and  _104
REMARK   45  A    between atoms: _103  and  _106
REMARK   46  A    between atoms: _109  and  _111
REMARK   47  A    between atoms: _111  and  _112
REMARK   48  A    between atoms: _111  and  _114
REMARK   49  A    between atoms: _114  and  _115
REMARK   50  A    between atoms: _115  and  _116
REMARK   51  A    between atoms: _118  and  _120
REMARK   52  A    between atoms: _120  and  _121
REMARK   53  A    between atoms: _120  and  _123
REMARK   54  A    between atoms: _123  and  _124
REMARK   55  A    between atoms: _127  and  _129
REMARK   56  A    between atoms: _129  and  _130
REMARK   57  A    between atoms: _132  and  _134
REMARK   58  A    between atoms: _134  and  _135
REMARK   59  A    between atoms: _137  and  _139
REMARK   60  A    between atoms: _139  and  _140
REMARK   61  A    between atoms: _139  and  _142
REMARK   62  A    between atoms: _142  and  _143
REMARK   63  A    between atoms: _146  and  _148
REMARK   64  A    between atoms: _148  and  _149
REMARK   65  A    between atoms: _151  and  _153
REMARK   66  A    between atoms: _153  and  _154
REMARK   67  A    between atoms: _156  and  _158
REMARK   68  A    between atoms: _158  and  _159
REMARK   69  A    between atoms: _158  and  _161
REMARK   70  A    between atoms: _161  and  _162
REMARK   71  A    between atoms: _168  and  _170
REMARK   72  A    between atoms: _170  and  _171
REMARK   73  A    between atoms: _170  and  _173
REMARK   74  A    between atoms: _173  and  _174
REMARK   75  A    between atoms: _177  and  _179
REMARK   76  A    between atoms: _179  and  _180
REMARK   77  A    between atoms: _179  and  _182
REMARK   78  A    between atoms: _185  and  _187
REMARK   79  A    between atoms: _187  and  _188
REMARK   80  A    between atoms: _187  and  _190
REMARK   81  A    between atoms: _190  and  _191
REMARK   82  A    between atoms: _194  and  _196
REMARK   83  A    between atoms: _196  and  _197
REMARK   84  A    between atoms: _196  and  _199
REMARK   85  A    between atoms: _199  and  _200
REMARK   86  A    between atoms: _204  and  _205
REMARK   87  A    between atoms: _210  and  _212
REMARK   88  A    between atoms: _212  and  _213
REMARK   89  A    between atoms: _212  and  _215
REMARK   90  A    between atoms: _215  and  _216
REMARK   91  A    between atoms: _219  and  _221
REMARK   92  A    between atoms: _221  and  _222
REMARK   93  A    between atoms: _221  and  _224
REMARK   94  A    between atoms: _224  and  _225
REMARK   95  A    between atoms: _230  and  _232
REMARK   96  A    between atoms: _232  and  _233
REMARK   97  A    between atoms: _232  and  _235
REMARK   98  A    between atoms: _238  and  _240
REMARK   99  A    between atoms: _240  and  _241
REMARK  100  A    between atoms: _240  and  _243
REMARK  101  A    between atoms: _243  and  _244
REMARK  102  A    between atoms: _247  and  _249
REMARK  103  A    between atoms: _249  and  _250
REMARK  104  A    between atoms: _252  and  _254
REMARK  105  A    between atoms: _254  and  _255
REMARK  106  A    between atoms: _254  and  _257
REMARK  107  A    between atoms: _257  and  _258
REMARK  108  A    between atoms: _258  and  _259
REMARK  109  A    between atoms: _259  and  _260
REMARK  110  A    between atoms: _269  and  _271
REMARK  111  A    between atoms: _271  and  _272
REMARK  112  A    between atoms: _271  and  _274
REMARK  113  A    between atoms: _274  and  _275
REMARK  114  A    between atoms: _275  and  _276
REMARK  115  A    between atoms: _276  and  _277
REMARK  116  A    between atoms: _286  and  _288
REMARK  117  A    between atoms: _288  and  _289
REMARK  118  A    between atoms: _288  and  _291
REMARK  119  A    between atoms: _291  and  _292
REMARK  120  A    between atoms: _295  and  _297
REMARK  121  A    between atoms: _297  and  _298
REMARK  122  A    between atoms: _297  and  _300
REMARK  123  A    between atoms: _300  and  _301
REMARK  124  A    between atoms: _304  and  _306
REMARK  125  A    between atoms: _306  and  _307
REMARK  126  A    between atoms: _306  and  _309
REMARK  127  A    between atoms: _309  and  _310
REMARK  128  A    between atoms: _313  and  _315
REMARK  129  A    between atoms: _315  and  _316
REMARK  130  A    between atoms: _315  and  _318
REMARK  131  A    between atoms: _318  and  _319
REMARK  132  A    between atoms: _322  and  _324
REMARK  133  A    between atoms: _324  and  _325
REMARK  134  A    between atoms: _327  and  _329
REMARK  135  A    between atoms: _329  and  _330
REMARK  136  A    between atoms: _333  and  _335
REMARK  137  A    between atoms: _335  and  _336
REMARK  138  A    between atoms: _335  and  _338
REMARK  139  A    between atoms: _338  and  _339
REMARK  140  A    between atoms: _342  and  _344
REMARK  141  A    between atoms: _344  and  _345
REMARK  142  A    between atoms: _344  and  _347
REMARK  143  A    between atoms: _347  and  _348
REMARK  144  A    between atoms: _351  and  _353
REMARK  145  A    between atoms: _353  and  _354
REMARK  146  A    between atoms: _353  and  _356
REMARK  147  A    between atoms: _356  and  _357
REMARK  148  A    between atoms: _360  and  _362
REMARK  149  A    between atoms: _362  and  _363
REMARK  150  A    between atoms: _362  and  _365
REMARK  151  A    between atoms: _368  and  _370
REMARK  152  A    between atoms: _370  and  _371
REMARK  153  A    between atoms: _370  and  _373
REMARK  154  A    between atoms: _373  and  _374
REMARK  155  A    between atoms: _377  and  _379
REMARK  156  A    between atoms: _379  and  _380
REMARK  157  A    between atoms: _379  and  _382
REMARK  158  A    between atoms: _382  and  _383
REMARK  159  A    between atoms: _383  and  _384
REMARK  160  A    between atoms: _384  and  _385
REMARK  161  A    between atoms: _385  and  _386
REMARK  162  A    between atoms: _390  and  _392
REMARK  163  A    between atoms: _392  and  _393
REMARK  164  A    between atoms: _392  and  _395
REMARK  165  A    between atoms: _395  and  _396
REMARK  166  A    between atoms: _396  and  _397
REMARK  167  A    between atoms: _399  and  _401
REMARK  168  A    between atoms: _401  and  _402
REMARK  169  A    between atoms: _401  and  _404
REMARK  170  A    between atoms: _404  and  _405
REMARK  171  A    between atoms: _408  and  _410
REMARK  172  A    between atoms: _410  and  _411
REMARK  173  A    between atoms: _413  and  _415
REMARK  174  A    between atoms: _415  and  _416
REMARK  175  A    between atoms: _418  and  _420
REMARK  176  A    between atoms: _420  and  _421
REMARK  177  A    between atoms: _420  and  _423
REMARK  178  A    between atoms: _423  and  _424
REMARK  179  A    between atoms: _427  and  _429
REMARK  180  A    between atoms: _429  and  _430
REMARK  181  A    between atoms: _432  and  _434
REMARK  182  A    between atoms: _434  and  _435
REMARK  183  A    between atoms: _437  and  _439
REMARK  184  A    between atoms: _439  and  _440
REMARK  185  A    between atoms: _439  and  _442
REMARK  186  A    between atoms: _442  and  _443
REMARK  187  A    between atoms: _449  and  _451
REMARK  188  A    between atoms: _451  and  _452
REMARK  189  A    between atoms: _451  and  _454
REMARK  190  A    between atoms: _454  and  _455
REMARK  191  A    between atoms: _458  and  _460
REMARK  192  A    between atoms: _460  and  _461
REMARK  193  A    between atoms: _460  and  _463
REMARK  194  A    between atoms: _466  and  _468
REMARK  195  A    between atoms: _468  and  _469
REMARK  196  A    between atoms: _468  and  _471
REMARK  197  A    between atoms: _471  and  _472
REMARK  198  A    between atoms: _475  and  _477
REMARK  199  A    between atoms: _477  and  _478
REMARK  200  A    between atoms: _477  and  _480
REMARK  201  A    between atoms: _480  and  _481
REMARK  202  A    between atoms: _485  and  _486
REMARK  203  A    between atoms: _491  and  _493
REMARK  204  A    between atoms: _493  and  _494
REMARK  205  A    between atoms: _493  and  _496
REMARK  206  A    between atoms: _496  and  _497
REMARK  207  A    between atoms: _500  and  _502
REMARK  208  A    between atoms: _502  and  _503
REMARK  209  A    between atoms: _502  and  _505
REMARK  210  A    between atoms: _505  and  _506
REMARK  211  A    between atoms: _511  and  _513
REMARK  212  A    between atoms: _513  and  _514
REMARK  213  A    between atoms: _513  and  _516
REMARK  214  A    between atoms: _519  and  _521
REMARK  215  A    between atoms: _521  and  _522
REMARK  216  A    between atoms: _521  and  _524
REMARK  217  A    between atoms: _524  and  _525
REMARK  218  A    between atoms: _528  and  _530
REMARK  219  A    between atoms: _530  and  _531
REMARK  220  A    between atoms: _533  and  _535
REMARK  221  A    between atoms: _535  and  _536
REMARK  222  A    between atoms: _535  and  _538
REMARK  223  A    between atoms: _538  and  _539
REMARK  224  A    between atoms: _539  and  _540
REMARK  225  A    between atoms: _540  and  _541
REMARK  226  A    between atoms: _550  and  _552
REMARK  227  A    between atoms: _552  and  _553
REMARK  228  A    between atoms: _552  and  _555
REMARK  229  A    between atoms: _555  and  _556
REMARK                            x       y       z     vdW  Elec       q    Type
REMARK                         _______ _______ _______ _____ _____    ______ ____
ROOT
ATOM      1  O   HOH     1       6.818  -5.661  18.959  0.00  0.00    +0.000 OA
ENDROOT
TORSDOF 0
REMARK  Name = ../refined-set-2016/1k6p/1k6p_pocket.pdb
REMARK  229 active torsions:
REMARK  status: ('A' for Active; 'I' for Inactive)
REMARK    1  A    between atoms: _1  and  _3
REMARK    2  A    between atoms: _3  and  _4
REMARK    3  A    between atoms: _3  and  _6
REMARK    4  A    between atoms: _6  and  _7
REMARK    5  A    between atoms: _7  and  _8
REMARK    6  A    between atoms: _8  and  _9
REMARK    7  A    between atoms: _18  and  _20
REMARK    8  A    between atoms: _20  and  _21
REMARK    9  A    between atoms: _20  and  _23
REMARK   10  A    between atoms: _23  and  _24
REMARK   11  A    between atoms: _27  and  _29
REMARK   12  A    between atoms: _29  and  _30
REMARK   13  A    between atoms: _29  and  _32
REMARK   14  A    between atoms: _32  and  _33
REMARK   15  A    between atoms: _36  and  _38
REMARK   16  A    between atoms: _38  and  _39
REMARK   17  A    between atoms: _38  and  _41
REMARK   18  A    between atoms: _41  and  _42
REMARK   19  A    between atoms: _45  and  _47
REMARK   20  A    between atoms: _47  and  _48
REMARK   21  A    between atoms: _47  and  _50
REMARK   22  A    between atoms: _50  and  _51
REMARK   23  A    between atoms: _54  and  _56
REMARK   24  A    between atoms: _56  and  _57
REMARK   25  A    between atoms: _56  and  _59
REMARK   26  A    between atoms: _59  and  _60
REMARK   27  A    between atoms: _63  and  _65
REMARK   28  A    between atoms: _65  and  _66
REMARK   29  A    between atoms: _68  and  _70
REMARK   30  A    between atoms: _70  and  _71
REMARK   31  A    between atoms: _74  and  _76
REMARK   32  A    between atoms: _76  and  _77
REMARK   33  A    between atoms: _76  and  _79
REMARK   34  A    between atoms: _79  and  _80
REMARK   35  A    between atoms: _83  and  _85
REMARK   36  A    between atoms: _85  and  _86
REMARK   37  A    between atoms: _85  and  _88
REMARK   38  A    between atoms: _88  and  _89
REMARK   39  A    between atoms: _92  and  _94
REMARK   40  A    between atoms: _94  and  _95
REMARK   41  A    between atoms: _94  and  _97
REMARK   42  A    between atoms: _97  and  _98
REMARK   43  A    between atoms: _101  and  _103
REMARK   44  A    between atoms: _103  and  _104
REMARK   45  A    between atoms: _103  and  _106
REMARK   46  A    between atoms: _109  and  _111
REMARK   47  A    between atoms: _111  and  _112
REMARK   48  A    between atoms: _111  and  _114
REMARK   49  A    between atoms: _114  and  _115
REMARK   50  A    between atoms: _115  and  _116
REMARK   51  A    between atoms: _118  and  _120
REMARK   52  A    between atoms: _120  and  _121
REMARK   53  A    between atoms: _120  and  _123
REMARK   54  A    between atoms: _123  and  _124
REMARK   55  A    between atoms: _127  and  _129
REMARK   56  A    between atoms: _129  and  _130
REMARK   57  A    between atoms: _132  and  _134
REMARK   58  A    between atoms: _134  and  _135
REMARK   59  A    between atoms: _137  and  _139
REMARK   60  A    between atoms: _139  and  _140
REMARK   61  A    between atoms: _139  and  _142
REMARK   62  A    between atoms: _142  and  _143
REMARK   63  A    between atoms: _146  and  _148
REMARK   64  A    between atoms: _148  and  _149
REMARK   65  A    between atoms: _151  and  _153
REMARK   66  A    between atoms: _153  and  _154
REMARK   67  A    between atoms: _156  and  _158
REMARK   68  A    between atoms: _158  and  _159
REMARK   69  A    between atoms: _158  and  _161
REMARK   70  A    between atoms: _161  and  _162
REMARK   71  A    between atoms: _168  and  _170
REMARK   72  A    between atoms: _170  and  _171
REMARK   73  A    between atoms: _170  and  _173
REMARK   74  A    between atoms: _173  and  _174
REMARK   75  A    between atoms: _177  and  _179
REMARK   76  A    between atoms: _179  and  _180
REMARK   77  A    between atoms: _179  and  _182
REMARK   78  A    between atoms: _185  and  _187
REMARK   79  A    between atoms: _187  and  _188
REMARK   80  A    between atoms: _187  and  _190
REMARK   81  A    between atoms: _190  and  _191
REMARK   82  A    between atoms: _194  and  _196
REMARK   83  A    between atoms: _196  and  _197
REMARK   84  A    between atoms: _196  and  _199
REMARK   85  A    between atoms: _199  and  _200
REMARK   86  A    between atoms: _204  and  _205
REMARK   87  A    between atoms: _210  and  _212
REMARK   88  A    between atoms: _212  and  _213
REMARK   89  A    between atoms: _212  and  _215
REMARK   90  A    between atoms: _215  and  _216
REMARK   91  A    between atoms: _219  and  _221
REMARK   92  A    between atoms: _221  and  _222
REMARK   93  A    between atoms: _221  and  _224
REMARK   94  A    between atoms: _224  and  _225
REMARK   95  A    between atoms: _230  and  _232
REMARK   96  A    between atoms: _232  and  _233
REMARK   97  A    between atoms: _232  and  _235
REMARK   98  A    between atoms: _238  and  _240
REMARK   99  A    between atoms: _240  and  _241
REMARK  100  A    between atoms: _240  and  _243
REMARK  101  A    between atoms: _243  and  _244
REMARK  102  A    between atoms: _247  and  _249
REMARK  103  A    between atoms: _249  and  _250
REMARK  104  A    between atoms: _252  and  _254
REMARK  105  A    between atoms: _254  and  _255
REMARK  106  A    between atoms: _254  and  _257
REMARK  107  A    between atoms: _257  and  _258
REMARK  108  A    between atoms: _258  and  _259
REMARK  109  A    between atoms: _259  and  _260
REMARK  110  A    between atoms: _269  and  _271
REMARK  111  A    between atoms: _271  and  _272
REMARK  112  A    between atoms: _271  and  _274
REMARK  113  A    between atoms: _274  and  _275
REMARK  114  A    between atoms: _275  and  _276
REMARK  115  A    between atoms: _276  and  _277
REMARK  116  A    between atoms: _286  and  _288
REMARK  117  A    between atoms: _288  and  _289
REMARK  118  A    between atoms: _288  and  _291
REMARK  119  A    between atoms: _291  and  _292
REMARK  120  A    between atoms: _295  and  _297
REMARK  121  A    between atoms: _297  and  _298
REMARK  122  A    between atoms: _297  and  _300
REMARK  123  A    between atoms: _300  and  _301
REMARK  124  A    between atoms: _304  and  _306
REMARK  125  A    between atoms: _306  and  _307
REMARK  126  A    between atoms: _306  and  _309
REMARK  127  A    between atoms: _309  and  _310
REMARK  128  A    between atoms: _313  and  _315
REMARK  129  A    between atoms: _315  and  _316
REMARK  130  A    between atoms: _315  and  _318
REMARK  131  A    between atoms: _318  and  _319
REMARK  132  A    between atoms: _322  and  _324
REMARK  133  A    between atoms: _324  and  _325
REMARK  134  A    between atoms: _327  and  _329
REMARK  135  A    between atoms: _329  and  _330
REMARK  136  A    between atoms: _333  and  _335
REMARK  137  A    between atoms: _335  and  _336
REMARK  138  A    between atoms: _335  and  _338
REMARK  139  A    between atoms: _338  and  _339
REMARK  140  A    between atoms: _342  and  _344
REMARK  141  A    between atoms: _344  and  _345
REMARK  142  A    between atoms: _344  and  _347
REMARK  143  A    between atoms: _347  and  _348
REMARK  144  A    between atoms: _351  and  _353
REMARK  145  A    between atoms: _353  and  _354
REMARK  146  A    between atoms: _353  and  _356
REMARK  147  A    between atoms: _356  and  _357
REMARK  148  A    between atoms: _360  and  _362
REMARK  149  A    between atoms: _362  and  _363
REMARK  150  A    between atoms: _362  and  _365
REMARK  151  A    between atoms: _368  and  _370
REMARK  152  A    between atoms: _370  and  _371
REMARK  153  A    between atoms: _370  and  _373
REMARK  154  A    between atoms: _373  and  _374
REMARK  155  A    between atoms: _377  and  _379
REMARK  156  A    between atoms: _379  and  _380
REMARK  157  A    between atoms: _379  and  _382
REMARK  158  A    between atoms: _382  and  _383
REMARK  159  A    between atoms: _383  and  _384
REMARK  160  A    between atoms: _384  and  _385
REMARK  161  A    between atoms: _385  and  _386
REMARK  162  A    between atoms: _390  and  _392
REMARK  163  A    between atoms: _392  and  _393
REMARK  164  A    between atoms: _392  and  _395
REMARK  165  A    between atoms: _395  and  _396
REMARK  166  A    between atoms: _396  and  _397
REMARK  167  A    between atoms: _399  and  _401
REMARK  168  A    between atoms: _401  and  _402
REMARK  169  A    between atoms: _401  and  _404
REMARK  170  A    between atoms: _404  and  _405
REMARK  171  A    between atoms: _408  and  _410
REMARK  172  A    between atoms: _410  and  _411
REMARK  173  A    between atoms: _413  and  _415
REMARK  174  A    between atoms: _415  and  _416
REMARK  175  A    between atoms: _418  and  _420
REMARK  176  A    between atoms: _420  and  _421
REMARK  177  A    between atoms: _420  and  _423
REMARK  178  A    between atoms: _423  and  _424
REMARK  179  A    between atoms: _427  and  _429
REMARK  180  A    between atoms: _429  and  _430
REMARK  181  A    between atoms: _432  and  _434
REMARK  182  A    between atoms: _434  and  _435
REMARK  183  A    between atoms: _437  and  _439
REMARK  184  A    between atoms: _439  and  _440
REMARK  185  A    between atoms: _439  and  _442
REMARK  186  A    between atoms: _442  and  _443
REMARK  187  A    between atoms: _449  and  _451
REMARK  188  A    between atoms: _451  and  _452
REMARK  189  A    between atoms: _451  and  _454
REMARK  190  A    between atoms: _454  and  _455
REMARK  191  A    between atoms: _458  and  _460
REMARK  192  A    between atoms: _460  and  _461
REMARK  193  A    between atoms: _460  and  _463
REMARK  194  A    between atoms: _466  and  _468
REMARK  195  A    between atoms: _468  and  _469
REMARK  196  A    between atoms: _468  and  _471
REMARK  197  A    between atoms: _471  and  _472
REMARK  198  A    between atoms: _475  and  _477
REMARK  199  A    between atoms: _477  and  _478
REMARK  200  A    between atoms: _477  and  _480
REMARK  201  A    between atoms: _480  and  _481
REMARK  202  A    between atoms: _485  and  _486
REMARK  203  A    between atoms: _491  and  _493
REMARK  204  A    between atoms: _493  and  _494
REMARK  205  A    between atoms: _493  and  _496
REMARK  206  A    between atoms: _496  and  _497
REMARK  207  A    between atoms: _500  and  _502
REMARK  208  A    between atoms: _502  and  _503
REMARK  209  A    between atoms: _502  and  _505
REMARK  210  A    between atoms: _505  and  _506
REMARK  211  A    between atoms: _511  and  _513
REMARK  212  A    between atoms: _513  and  _514
REMARK  213  A    between atoms: _513  and  _516
REMARK  214  A    between atoms: _519  and  _521
REMARK  215  A    between atoms: _521  and  _522
REMARK  216  A    between atoms: _521  and  _524
REMARK  217  A    between atoms: _524  and  _525
REMARK  218  A    between atoms: _528  and  _530
REMARK  219  A    between atoms: _530  and  _531
REMARK  220  A    between atoms: _533  and  _535
REMARK  221  A    between atoms: _535  and  _536
REMARK  222  A    between atoms: _535  and  _538
REMARK  223  A    between atoms: _538  and  _539
REMARK  224  A    between atoms: _539  and  _540
REMARK  225  A    between atoms: _540  and  _541
REMARK  226  A    between atoms: _550  and  _552
REMARK  227  A    between atoms: _552  and  _553
REMARK  228  A    between atoms: _552  and  _555
REMARK  229  A    between atoms: _555  and  _556
REMARK                            x       y       z     vdW  Elec       q    Type
REMARK                         _______ _______ _______ _____ _____    ______ ____
ROOT
ATOM      1  O   HOH     1       5.739  -2.895  12.006  0.00  0.00    +0.000 OA
ENDROOT
TORSDOF 0
REMARK  Name = ../refined-set-2016/1k6p/1k6p_pocket.pdb
REMARK  229 active torsions:
REMARK  status: ('A' for Active; 'I' for Inactive)
REMARK    1  A    between atoms: _1  and  _3
REMARK    2  A    between atoms: _3  and  _4
REMARK    3  A    between atoms: _3  and  _6
REMARK    4  A    between atoms: _6  and  _7
REMARK    5  A    between atoms: _7  and  _8
REMARK    6  A    between atoms: _8  and  _9
REMARK    7  A    between atoms: _18  and  _20
REMARK    8  A    between atoms: _20  and  _21
REMARK    9  A    between atoms: _20  and  _23
REMARK   10  A    between atoms: _23  and  _24
REMARK   11  A    between atoms: _27  and  _29
REMARK   12  A    between atoms: _29  and  _30
REMARK   13  A    between atoms: _29  and  _32
REMARK   14  A    between atoms: _32  and  _33
REMARK   15  A    between atoms: _36  and  _38
REMARK   16  A    between atoms: _38  and  _39
REMARK   17  A    between atoms: _38  and  _41
REMARK   18  A    between atoms: _41  and  _42
REMARK   19  A    between atoms: _45  and  _47
REMARK   20  A    between atoms: _47  and  _48
REMARK   21  A    between atoms: _47  and  _50
REMARK   22  A    between atoms: _50  and  _51
REMARK   23  A    between atoms: _54  and  _56
REMARK   24  A    between atoms: _56  and  _57
REMARK   25  A    between atoms: _56  and  _59
REMARK   26  A    between atoms: _59  and  _60
REMARK   27  A    between atoms: _63  and  _65
REMARK   28  A    between atoms: _65  and  _66
REMARK   29  A    between atoms: _68  and  _70
REMARK   30  A    between atoms: _70  and  _71
REMARK   31  A    between atoms: _74  and  _76
REMARK   32  A    between atoms: _76  and  _77
REMARK   33  A    between atoms: _76  and  _79
REMARK   34  A    between atoms: _79  and  _80
REMARK   35  A    between atoms: _83  and  _85
REMARK   36  A    between atoms: _85  and  _86
REMARK   37  A    between atoms: _85  and  _88
REMARK   38  A    between atoms: _88  and  _89
REMARK   39  A    between atoms: _92  and  _94
REMARK   40  A    between atoms: _94  and  _95
REMARK   41  A    between atoms: _94  and  _97
REMARK   42  A    between atoms: _97  and  _98
REMARK   43  A    between atoms: _101  and  _103
REMARK   44  A    between atoms: _103  and  _104
REMARK   45  A    between atoms: _103  and  _106
REMARK   46  A    between atoms: _109  and  _111
REMARK   47  A    between atoms: _111  and  _112
REMARK   48  A    between atoms: _111  and  _114
REMARK   49  A    between atoms: _114  and  _115
REMARK   50  A    between atoms: _115  and  _116
REMARK   51  A    between atoms: _118  and  _120
REMARK   52  A    between atoms: _120  and  _121
REMARK   53  A    between atoms: _120  and  _123
REMARK   54  A    between atoms: _123  and  _124
REMARK   55  A    between atoms: _127  and  _129
REMARK   56  A    between atoms: _129  and  _130
REMARK   57  A    between atoms: _132  and  _134
REMARK   58  A    between atoms: _134  and  _135
REMARK   59  A    between atoms: _137  and  _139
REMARK   60  A    between atoms: _139  and  _140
REMARK   61  A    between atoms: _139  and  _142
REMARK   62  A    between atoms: _142  and  _143
REMARK   63  A    between atoms: _146  and  _148
REMARK   64  A    between atoms: _148  and  _149
REMARK   65  A    between atoms: _151  and  _153
REMARK   66  A    between atoms: _153  and  _154
REMARK   67  A    between atoms: _156  and  _158
REMARK   68  A    between atoms: _158  and  _159
REMARK   69  A    between atoms: _158  and  _161
REMARK   70  A    between atoms: _161  and  _162
REMARK   71  A    between atoms: _168  and  _170
REMARK   72  A    between atoms: _170  and  _171
REMARK   73  A    between atoms: _170  and  _173
REMARK   74  A    between atoms: _173  and  _174
REMARK   75  A    between atoms: _177  and  _179
REMARK   76  A    between atoms: _179  and  _180
REMARK   77  A    between atoms: _179  and  _182
REMARK   78  A    between atoms: _185  and  _187
REMARK   79  A    between atoms: _187  and  _188
REMARK   80  A    between atoms: _187  and  _190
REMARK   81  A    between atoms: _190  and  _191
REMARK   82  A    between atoms: _194  and  _196
REMARK   83  A    between atoms: _196  and  _197
REMARK   84  A    between atoms: _196  and  _199
REMARK   85  A    between atoms: _199  and  _200
REMARK   86  A    between atoms: _204  and  _205
REMARK   87  A    between atoms: _210  and  _212
REMARK   88  A    between atoms: _212  and  _213
REMARK   89  A    between atoms: _212  and  _215
REMARK   90  A    between atoms: _215  and  _216
REMARK   91  A    between atoms: _219  and  _221
REMARK   92  A    between atoms: _221  and  _222
REMARK   93  A    between atoms: _221  and  _224
REMARK   94  A    between atoms: _224  and  _225
REMARK   95  A    between atoms: _230  and  _232
REMARK   96  A    between atoms: _232  and  _233
REMARK   97  A    between atoms: _232  and  _235
REMARK   98  A    between atoms: _238  and  _240
REMARK   99  A    between atoms: _240  and  _241
REMARK  100  A    between atoms: _240  and  _243
REMARK  101  A    between atoms: _243  and  _244
REMARK  102  A    between atoms: _247  and  _249
REMARK  103  A    between atoms: _249  and  _250
REMARK  104  A    between atoms: _252  and  _254
REMARK  105  A    between atoms: _254  and  _255
REMARK  106  A    between atoms: _254  and  _257
REMARK  107  A    between atoms: _257  and  _258
REMARK  108  A    between atoms: _258  and  _259
REMARK  109  A    between atoms: _259  and  _260
REMARK  110  A    between atoms: _269  and  _271
REMARK  111  A    between atoms: _271  and  _272
REMARK  112  A    between atoms: _271  and  _274
REMARK  113  A    between atoms: _274  and  _275
REMARK  114  A    between atoms: _275  and  _276
REMARK  115  A    between atoms: _276  and  _277
REMARK  116  A    between atoms: _286  and  _288
REMARK  117  A    between atoms: _288  and  _289
REMARK  118  A    between atoms: _288  and  _291
REMARK  119  A    between atoms: _291  and  _292
REMARK  120  A    between atoms: _295  and  _297
REMARK  121  A    between atoms: _297  and  _298
REMARK  122  A    between atoms: _297  and  _300
REMARK  123  A    between atoms: _300  and  _301
REMARK  124  A    between atoms: _304  and  _306
REMARK  125  A    between atoms: _306  and  _307
REMARK  126  A    between atoms: _306  and  _309
REMARK  127  A    between atoms: _309  and  _310
REMARK  128  A    between atoms: _313  and  _315
REMARK  129  A    between atoms: _315  and  _316
REMARK  130  A    between atoms: _315  and  _318
REMARK  131  A    between atoms: _318  and  _319
REMARK  132  A    between atoms: _322  and  _324
REMARK  133  A    between atoms: _324  and  _325
REMARK  134  A    between atoms: _327  and  _329
REMARK  135  A    between atoms: _329  and  _330
REMARK  136  A    between atoms: _333  and  _335
REMARK  137  A    between atoms: _335  and  _336
REMARK  138  A    between atoms: _335  and  _338
REMARK  139  A    between atoms: _338  and  _339
REMARK  140  A    between atoms: _342  and  _344
REMARK  141  A    between atoms: _344  and  _345
REMARK  142  A    between atoms: _344  and  _347
REMARK  143  A    between atoms: _347  and  _348
REMARK  144  A    between atoms: _351  and  _353
REMARK  145  A    between atoms: _353  and  _354
REMARK  146  A    between atoms: _353  and  _356
REMARK  147  A    between atoms: _356  and  _357
REMARK  148  A    between atoms: _360  and  _362
REMARK  149  A    between atoms: _362  and  _363
REMARK  150  A    between atoms: _362  and  _365
REMARK  151  A    between atoms: _368  and  _370
REMARK  152  A    between atoms: _370  and  _371
REMARK  153  A    between atoms: _370  and  _373
REMARK  154  A    between atoms: _373  and  _374
REMARK  155  A    between atoms: _377  and  _379
REMARK  156  A    between atoms: _379  and  _380
REMARK  157  A    between atoms: _379  and  _382
REMARK  158  A    between atoms: _382  and  _383
REMARK  159  A    between atoms: _383  and  _384
REMARK  160  A    between atoms: _384  and  _385
REMARK  161  A    between atoms: _385  and  _386
REMARK  162  A    between atoms: _390  and  _392
REMARK  163  A    between atoms: _392  and  _393
REMARK  164  A    between atoms: _392  and  _395
REMARK  165  A    between atoms: _395  and  _396
REMARK  166  A    between atoms: _396  and  _397
REMARK  167  A    between atoms: _399  and  _401
REMARK  168  A    between atoms: _401  and  _402
REMARK  169  A    between atoms: _401  and  _404
REMARK  170  A    between atoms: _404  and  _405
REMARK  171  A    between atoms: _408  and  _410
REMARK  172  A    between atoms: _410  and  _411
REMARK  173  A    between atoms: _413  and  _415
REMARK  174  A    between atoms: _415  and  _416
REMARK  175  A    between atoms: _418  and  _420
REMARK  176  A    between atoms: _420  and  _421
REMARK  177  A    between atoms: _420  and  _423
REMARK  178  A    between atoms: _423  and  _424
REMARK  179  A    between atoms: _427  and  _429
REMARK  180  A    between atoms: _429  and  _430
REMARK  181  A    between atoms: _432  and  _434
REMARK  182  A    between atoms: _434  and  _435
REMARK  183  A    between atoms: _437  and  _439
REMARK  184  A    between atoms: _439  and  _440
REMARK  185  A    between atoms: _439  and  _442
REMARK  186  A    between atoms: _442  and  _443
REMARK  187  A    between atoms: _449  and  _451
REMARK  188  A    between atoms: _451  and  _452
REMARK  189  A    between atoms: _451  and  _454
REMARK  190  A    between atoms: _454  and  _455
REMARK  191  A    between atoms: _458  and  _460
REMARK  192  A    between atoms: _460  and  _461
REMARK  193  A    between atoms: _460  and  _463
REMARK  194  A    between atoms: _466  and  _468
REMARK  195  A    between atoms: _468  and  _469
REMARK  196  A    between atoms: _468  and  _471
REMARK  197  A    between atoms: _471  and  _472
REMARK  198  A    between atoms: _475  and  _477
REMARK  199  A    between atoms: _477  and  _478
REMARK  200  A    between atoms: _477  and  _480
REMARK  201  A    between atoms: _480  and  _481
REMARK  202  A    between atoms: _485  and  _486
REMARK  203  A    between atoms: _491  and  _493
REMARK  204  A    between atoms: _493  and  _494
REMARK  205  A    between atoms: _493  and  _496
REMARK  206  A    between atoms: _496  and  _497
REMARK  207  A    between atoms: _500  and  _502
REMARK  208  A    between atoms: _502  and  _503
REMARK  209  A    between atoms: _502  and  _505
REMARK  210  A    between atoms: _505  and  _506
REMARK  211  A    between atoms: _511  and  _513
REMARK  212  A    between atoms: _513  and  _514
REMARK  213  A    between atoms: _513  and  _516
REMARK  214  A    between atoms: _519  and  _521
REMARK  215  A    between atoms: _521  and  _522
REMARK  216  A    between atoms: _521  and  _524
REMARK  217  A    between atoms: _524  and  _525
REMARK  218  A    between atoms: _528  and  _530
REMARK  219  A    between atoms: _530  and  _531
REMARK  220  A    between atoms: _533  and  _535
REMARK  221  A    between atoms: _535  and  _536
REMARK  222  A    between atoms: _535  and  _538
REMARK  223  A    between atoms: _538  and  _539
REMARK  224  A    between atoms: _539  and  _540
REMARK  225  A    between atoms: _540  and  _541
REMARK  226  A    between atoms: _550  and  _552
REMARK  227  A    between atoms: _552  and  _553
REMARK  228  A    between atoms: _552  and  _555
REMARK  229  A    between atoms: _555  and  _556
REMARK                            x       y       z     vdW  Elec       q    Type
REMARK                         _______ _______ _______ _____ _____    ______ ____
ROOT
ATOM      1  O   HOH     1      -5.862   5.576  12.274  0.00  0.00    +0.000 OA
ENDROOT
TORSDOF 0
REMARK  Name = ../refined-set-2016/1k6p/1k6p_pocket.pdb
REMARK  229 active torsions:
REMARK  status: ('A' for Active; 'I' for Inactive)
REMARK    1  A    between atoms: _1  and  _3
REMARK    2  A    between atoms: _3  and  _4
REMARK    3  A    between atoms: _3  and  _6
REMARK    4  A    between atoms: _6  and  _7
REMARK    5  A    between atoms: _7  and  _8
REMARK    6  A    between atoms: _8  and  _9
REMARK    7  A    between atoms: _18  and  _20
REMARK    8  A    between atoms: _20  and  _21
REMARK    9  A    between atoms: _20  and  _23
REMARK   10  A    between atoms: _23  and  _24
REMARK   11  A    between atoms: _27  and  _29
REMARK   12  A    between atoms: _29  and  _30
REMARK   13  A    between atoms: _29  and  _32
REMARK   14  A    between atoms: _32  and  _33
REMARK   15  A    between atoms: _36  and  _38
REMARK   16  A    between atoms: _38  and  _39
REMARK   17  A    between atoms: _38  and  _41
REMARK   18  A    between atoms: _41  and  _42
REMARK   19  A    between atoms: _45  and  _47
REMARK   20  A    between atoms: _47  and  _48
REMARK   21  A    between atoms: _47  and  _50
REMARK   22  A    between atoms: _50  and  _51
REMARK   23  A    between atoms: _54  and  _56
REMARK   24  A    between atoms: _56  and  _57
REMARK   25  A    between atoms: _56  and  _59
REMARK   26  A    between atoms: _59  and  _60
REMARK   27  A    between atoms: _63  and  _65
REMARK   28  A    between atoms: _65  and  _66
REMARK   29  A    between atoms: _68  and  _70
REMARK   30  A    between atoms: _70  and  _71
REMARK   31  A    between atoms: _74  and  _76
REMARK   32  A    between atoms: _76  and  _77
REMARK   33  A    between atoms: _76  and  _79
REMARK   34  A    between atoms: _79  and  _80
REMARK   35  A    between atoms: _83  and  _85
REMARK   36  A    between atoms: _85  and  _86
REMARK   37  A    between atoms: _85  and  _88
REMARK   38  A    between atoms: _88  and  _89
REMARK   39  A    between atoms: _92  and  _94
REMARK   40  A    between atoms: _94  and  _95
REMARK   41  A    between atoms: _94  and  _97
REMARK   42  A    between atoms: _97  and  _98
REMARK   43  A    between atoms: _101  and  _103
REMARK   44  A    between atoms: _103  and  _104
REMARK   45  A    between atoms: _103  and  _106
REMARK   46  A    between atoms: _109  and  _111
REMARK   47  A    between atoms: _111  and  _112
REMARK   48  A    between atoms: _111  and  _114
REMARK   49  A    between atoms: _114  and  _115
REMARK   50  A    between atoms: _115  and  _116
REMARK   51  A    between atoms: _118  and  _120
REMARK   52  A    between atoms: _120  and  _121
REMARK   53  A    between atoms: _120  and  _123
REMARK   54  A    between atoms: _123  and  _124
REMARK   55  A    between atoms: _127  and  _129
REMARK   56  A    between atoms: _129  and  _130
REMARK   57  A    between atoms: _132  and  _134
REMARK   58  A    between atoms: _134  and  _135
REMARK   59  A    between atoms: _137  and  _139
REMARK   60  A    between atoms: _139  and  _140
REMARK   61  A    between atoms: _139  and  _142
REMARK   62  A    between atoms: _142  and  _143
REMARK   63  A    between atoms: _146  and  _148
REMARK   64  A    between atoms: _148  and  _149
REMARK   65  A    between atoms: _151  and  _153
REMARK   66  A    between atoms: _153  and  _154
REMARK   67  A    between atoms: _156  and  _158
REMARK   68  A    between atoms: _158  and  _159
REMARK   69  A    between atoms: _158  and  _161
REMARK   70  A    between atoms: _161  and  _162
REMARK   71  A    between atoms: _168  and  _170
REMARK   72  A    between atoms: _170  and  _171
REMARK   73  A    between atoms: _170  and  _173
REMARK   74  A    between atoms: _173  and  _174
REMARK   75  A    between atoms: _177  and  _179
REMARK   76  A    between atoms: _179  and  _180
REMARK   77  A    between atoms: _179  and  _182
REMARK   78  A    between atoms: _185  and  _187
REMARK   79  A    between atoms: _187  and  _188
REMARK   80  A    between atoms: _187  and  _190
REMARK   81  A    between atoms: _190  and  _191
REMARK   82  A    between atoms: _194  and  _196
REMARK   83  A    between atoms: _196  and  _197
REMARK   84  A    between atoms: _196  and  _199
REMARK   85  A    between atoms: _199  and  _200
REMARK   86  A    between atoms: _204  and  _205
REMARK   87  A    between atoms: _210  and  _212
REMARK   88  A    between atoms: _212  and  _213
REMARK   89  A    between atoms: _212  and  _215
REMARK   90  A    between atoms: _215  and  _216
REMARK   91  A    between atoms: _219  and  _221
REMARK   92  A    between atoms: _221  and  _222
REMARK   93  A    between atoms: _221  and  _224
REMARK   94  A    between atoms: _224  and  _225
REMARK   95  A    between atoms: _230  and  _232
REMARK   96  A    between atoms: _232  and  _233
REMARK   97  A    between atoms: _232  and  _235
REMARK   98  A    between atoms: _238  and  _240
REMARK   99  A    between atoms: _240  and  _241
REMARK  100  A    between atoms: _240  and  _243
REMARK  101  A    between atoms: _243  and  _244
REMARK  102  A    between atoms: _247  and  _249
REMARK  103  A    between atoms: _249  and  _250
REMARK  104  A    between atoms: _252  and  _254
REMARK  105  A    between atoms: _254  and  _255
REMARK  106  A    between atoms: _254  and  _257
REMARK  107  A    between atoms: _257  and  _258
REMARK  108  A    between atoms: _258  and  _259
REMARK  109  A    between atoms: _259  and  _260
REMARK  110  A    between atoms: _269  and  _271
REMARK  111  A    between atoms: _271  and  _272
REMARK  112  A    between atoms: _271  and  _274
REMARK  113  A    between atoms: _274  and  _275
REMARK  114  A    between atoms: _275  and  _276
REMARK  115  A    between atoms: _276  and  _277
REMARK  116  A    between atoms: _286  and  _288
REMARK  117  A    between atoms: _288  and  _289
REMARK  118  A    between atoms: _288  and  _291
REMARK  119  A    between atoms: _291  and  _292
REMARK  120  A    between atoms: _295  and  _297
REMARK  121  A    between atoms: _297  and  _298
REMARK  122  A    between atoms: _297  and  _300
REMARK  123  A    between atoms: _300  and  _301
REMARK  124  A    between atoms: _304  and  _306
REMARK  125  A    between atoms: _306  and  _307
REMARK  126  A    between atoms: _306  and  _309
REMARK  127  A    between atoms: _309  and  _310
REMARK  128  A    between atoms: _313  and  _315
REMARK  129  A    between atoms: _315  and  _316
REMARK  130  A    between atoms: _315  and  _318
REMARK  131  A    between atoms: _318  and  _319
REMARK  132  A    between atoms: _322  and  _324
REMARK  133  A    between atoms: _324  and  _325
REMARK  134  A    between atoms: _327  and  _329
REMARK  135  A    between atoms: _329  and  _330
REMARK  136  A    between atoms: _333  and  _335
REMARK  137  A    between atoms: _335  and  _336
REMARK  138  A    between atoms: _335  and  _338
REMARK  139  A    between atoms: _338  and  _339
REMARK  140  A    between atoms: _342  and  _344
REMARK  141  A    between atoms: _344  and  _345
REMARK  142  A    between atoms: _344  and  _347
REMARK  143  A    between atoms: _347  and  _348
REMARK  144  A    between atoms: _351  and  _353
REMARK  145  A    between atoms: _353  and  _354
REMARK  146  A    between atoms: _353  and  _356
REMARK  147  A    between atoms: _356  and  _357
REMARK  148  A    between atoms: _360  and  _362
REMARK  149  A    between atoms: _362  and  _363
REMARK  150  A    between atoms: _362  and  _365
REMARK  151  A    between atoms: _368  and  _370
REMARK  152  A    between atoms: _370  and  _371
REMARK  153  A    between atoms: _370  and  _373
REMARK  154  A    between atoms: _373  and  _374
REMARK  155  A    between atoms: _377  and  _379
REMARK  156  A    between atoms: _379  and  _380
REMARK  157  A    between atoms: _379  and  _382
REMARK  158  A    between atoms: _382  and  _383
REMARK  159  A    between atoms: _383  and  _384
REMARK  160  A    between atoms: _384  and  _385
REMARK  161  A    between atoms: _385  and  _386
REMARK  162  A    between atoms: _390  and  _392
REMARK  163  A    between atoms: _392  and  _393
REMARK  164  A    between atoms: _392  and  _395
REMARK  165  A    between atoms: _395  and  _396
REMARK  166  A    between atoms: _396  and  _397
REMARK  167  A    between atoms: _399  and  _401
REMARK  168  A    between atoms: _401  and  _402
REMARK  169  A    between atoms: _401  and  _404
REMARK  170  A    between atoms: _404  and  _405
REMARK  171  A    between atoms: _408  and  _410
REMARK  172  A    between atoms: _410  and  _411
REMARK  173  A    between atoms: _413  and  _415
REMARK  174  A    between atoms: _415  and  _416
REMARK  175  A    between atoms: _418  and  _420
REMARK  176  A    between atoms: _420  and  _421
REMARK  177  A    between atoms: _420  and  _423
REMARK  178  A    between atoms: _423  and  _424
REMARK  179  A    between atoms: _427  and  _429
REMARK  180  A    between atoms: _429  and  _430
REMARK  181  A    between atoms: _432  and  _434
REMARK  182  A    between atoms: _434  and  _435
REMARK  183  A    between atoms: _437  and  _439
REMARK  184  A    between atoms: _439  and  _440
REMARK  185  A    between atoms: _439  and  _442
REMARK  186  A    between atoms: _442  and  _443
REMARK  187  A    between atoms: _449  and  _451
REMARK  188  A    between atoms: _451  and  _452
REMARK  189  A    between atoms: _451  and  _454
REMARK  190  A    between atoms: _454  and  _455
REMARK  191  A    between atoms: _458  and  _460
REMARK  192  A    between atoms: _460  and  _461
REMARK  193  A    between atoms: _460  and  _463
REMARK  194  A    between atoms: _466  and  _468
REMARK  195  A    between atoms: _468  and  _469
REMARK  196  A    between atoms: _468  and  _471
REMARK  197  A    between atoms: _471  and  _472
REMARK  198  A    between atoms: _475  and  _477
REMARK  199  A    between atoms: _477  and  _478
REMARK  200  A    between atoms: _477  and  _480
REMARK  201  A    between atoms: _480  and  _481
REMARK  202  A    between atoms: _485  and  _486
REMARK  203  A    between atoms: _491  and  _493
REMARK  204  A    between atoms: _493  and  _494
REMARK  205  A    between atoms: _493  and  _496
REMARK  206  A    between atoms: _496  and  _497
REMARK  207  A    between atoms: _500  and  _502
REMARK  208  A    between atoms: _502  and  _503
REMARK  209  A    between atoms: _502  and  _505
REMARK  210  A    between atoms: _505  and  _506
REMARK  211  A    between atoms: _511  and  _513
REMARK  212  A    between atoms: _513  and  _514
REMARK  213  A    between atoms: _513  and  _516
REMARK  214  A    between atoms: _519  and  _521
REMARK  215  A    between atoms: _521  and  _522
REMARK  216  A    between atoms: _521  and  _524
REMARK  217  A    between atoms: _524  and  _525
REMARK  218  A    between atoms: _528  and  _530
REMARK  219  A    between atoms: _530  and  _531
REMARK  220  A    between atoms: _533  and  _535
REMARK  221  A    between atoms: _535  and  _536
REMARK  222  A    between atoms: _535  and  _538
REMARK  223  A    between atoms: _538  and  _539
REMARK  224  A    between atoms: _539  and  _540
REMARK  225  A    between atoms: _540  and  _541
REMARK  226  A    between atoms: _550  and  _552
REMARK  227  A    between atoms: _552  and  _553
REMARK  228  A    between atoms: _552  and  _555
REMARK  229  A    between atoms: _555  and  _556
REMARK                            x       y       z     vdW  Elec       q    Type
REMARK                         _______ _______ _______ _____ _____    ______ ____
ROOT
ATOM      1  O   HOH     1       1.922   3.495   6.050  0.00  0.00    +0.000 OA
ENDROOT
TORSDOF 0
REMARK  Name = ../refined-set-2016/1k6p/1k6p_pocket.pdb
REMARK  229 active torsions:
REMARK  status: ('A' for Active; 'I' for Inactive)
REMARK    1  A    between atoms: _1  and  _3
REMARK    2  A    between atoms: _3  and  _4
REMARK    3  A    between atoms: _3  and  _6
REMARK    4  A    between atoms: _6  and  _7
REMARK    5  A    between atoms: _7  and  _8
REMARK    6  A    between atoms: _8  and  _9
REMARK    7  A    between atoms: _18  and  _20
REMARK    8  A    between atoms: _20  and  _21
REMARK    9  A    between atoms: _20  and  _23
REMARK   10  A    between atoms: _23  and  _24
REMARK   11  A    between atoms: _27  and  _29
REMARK   12  A    between atoms: _29  and  _30
REMARK   13  A    between atoms: _29  and  _32
REMARK   14  A    between atoms: _32  and  _33
REMARK   15  A    between atoms: _36  and  _38
REMARK   16  A    between atoms: _38  and  _39
REMARK   17  A    between atoms: _38  and  _41
REMARK   18  A    between atoms: _41  and  _42
REMARK   19  A    between atoms: _45  and  _47
REMARK   20  A    between atoms: _47  and  _48
REMARK   21  A    between atoms: _47  and  _50
REMARK   22  A    between atoms: _50  and  _51
REMARK   23  A    between atoms: _54  and  _56
REMARK   24  A    between atoms: _56  and  _57
REMARK   25  A    between atoms: _56  and  _59
REMARK   26  A    between atoms: _59  and  _60
REMARK   27  A    between atoms: _63  and  _65
REMARK   28  A    between atoms: _65  and  _66
REMARK   29  A    between atoms: _68  and  _70
REMARK   30  A    between atoms: _70  and  _71
REMARK   31  A    between atoms: _74  and  _76
REMARK   32  A    between atoms: _76  and  _77
REMARK   33  A    between atoms: _76  and  _79
REMARK   34  A    between atoms: _79  and  _80
REMARK   35  A    between atoms: _83  and  _85
REMARK   36  A    between atoms: _85  and  _86
REMARK   37  A    between atoms: _85  and  _88
REMARK   38  A    between atoms: _88  and  _89
REMARK   39  A    between atoms: _92  and  _94
REMARK   40  A    between atoms: _94  and  _95
REMARK   41  A    between atoms: _94  and  _97
REMARK   42  A    between atoms: _97  and  _98
REMARK   43  A    between atoms: _101  and  _103
REMARK   44  A    between atoms: _103  and  _104
REMARK   45  A    between atoms: _103  and  _106
REMARK   46  A    between atoms: _109  and  _111
REMARK   47  A    between atoms: _111  and  _112
REMARK   48  A    between atoms: _111  and  _114
REMARK   49  A    between atoms: _114  and  _115
REMARK   50  A    between atoms: _115  and  _116
REMARK   51  A    between atoms: _118  and  _120
REMARK   52  A    between atoms: _120  and  _121
REMARK   53  A    between atoms: _120  and  _123
REMARK   54  A    between atoms: _123  and  _124
REMARK   55  A    between atoms: _127  and  _129
REMARK   56  A    between atoms: _129  and  _130
REMARK   57  A    between atoms: _132  and  _134
REMARK   58  A    between atoms: _134  and  _135
REMARK   59  A    between atoms: _137  and  _139
REMARK   60  A    between atoms: _139  and  _140
REMARK   61  A    between atoms: _139  and  _142
REMARK   62  A    between atoms: _142  and  _143
REMARK   63  A    between atoms: _146  and  _148
REMARK   64  A    between atoms: _148  and  _149
REMARK   65  A    between atoms: _151  and  _153
REMARK   66  A    between atoms: _153  and  _154
REMARK   67  A    between atoms: _156  and  _158
REMARK   68  A    between atoms: _158  and  _159
REMARK   69  A    between atoms: _158  and  _161
REMARK   70  A    between atoms: _161  and  _162
REMARK   71  A    between atoms: _168  and  _170
REMARK   72  A    between atoms: _170  and  _171
REMARK   73  A    between atoms: _170  and  _173
REMARK   74  A    between atoms: _173  and  _174
REMARK   75  A    between atoms: _177  and  _179
REMARK   76  A    between atoms: _179  and  _180
REMARK   77  A    between atoms: _179  and  _182
REMARK   78  A    between atoms: _185  and  _187
REMARK   79  A    between atoms: _187  and  _188
REMARK   80  A    between atoms: _187  and  _190
REMARK   81  A    between atoms: _190  and  _191
REMARK   82  A    between atoms: _194  and  _196
REMARK   83  A    between atoms: _196  and  _197
REMARK   84  A    between atoms: _196  and  _199
REMARK   85  A    between atoms: _199  and  _200
REMARK   86  A    between atoms: _204  and  _205
REMARK   87  A    between atoms: _210  and  _212
REMARK   88  A    between atoms: _212  and  _213
REMARK   89  A    between atoms: _212  and  _215
REMARK   90  A    between atoms: _215  and  _216
REMARK   91  A    between atoms: _219  and  _221
REMARK   92  A    between atoms: _221  and  _222
REMARK   93  A    between atoms: _221  and  _224
REMARK   94  A    between atoms: _224  and  _225
REMARK   95  A    between atoms: _230  and  _232
REMARK   96  A    between atoms: _232  and  _233
REMARK   97  A    between atoms: _232  and  _235
REMARK   98  A    between atoms: _238  and  _240
REMARK   99  A    between atoms: _240  and  _241
REMARK  100  A    between atoms: _240  and  _243
REMARK  101  A    between atoms: _243  and  _244
REMARK  102  A    between atoms: _247  and  _249
REMARK  103  A    between atoms: _249  and  _250
REMARK  104  A    between atoms: _252  and  _254
REMARK  105  A    between atoms: _254  and  _255
REMARK  106  A    between atoms: _254  and  _257
REMARK  107  A    between atoms: _257  and  _258
REMARK  108  A    between atoms: _258  and  _259
REMARK  109  A    between atoms: _259  and  _260
REMARK  110  A    between atoms: _269  and  _271
REMARK  111  A    between atoms: _271  and  _272
REMARK  112  A    between atoms: _271  and  _274
REMARK  113  A    between atoms: _274  and  _275
REMARK  114  A    between atoms: _275  and  _276
REMARK  115  A    between atoms: _276  and  _277
REMARK  116  A    between atoms: _286  and  _288
REMARK  117  A    between atoms: _288  and  _289
REMARK  118  A    between atoms: _288  and  _291
REMARK  119  A    between atoms: _291  and  _292
REMARK  120  A    between atoms: _295  and  _297
REMARK  121  A    between atoms: _297  and  _298
REMARK  122  A    between atoms: _297  and  _300
REMARK  123  A    between atoms: _300  and  _301
REMARK  124  A    between atoms: _304  and  _306
REMARK  125  A    between atoms: _306  and  _307
REMARK  126  A    between atoms: _306  and  _309
REMARK  127  A    between atoms: _309  and  _310
REMARK  128  A    between atoms: _313  and  _315
REMARK  129  A    between atoms: _315  and  _316
REMARK  130  A    between atoms: _315  and  _318
REMARK  131  A    between atoms: _318  and  _319
REMARK  132  A    between atoms: _322  and  _324
REMARK  133  A    between atoms: _324  and  _325
REMARK  134  A    between atoms: _327  and  _329
REMARK  135  A    between atoms: _329  and  _330
REMARK  136  A    between atoms: _333  and  _335
REMARK  137  A    between atoms: _335  and  _336
REMARK  138  A    between atoms: _335  and  _338
REMARK  139  A    between atoms: _338  and  _339
REMARK  140  A    between atoms: _342  and  _344
REMARK  141  A    between atoms: _344  and  _345
REMARK  142  A    between atoms: _344  and  _347
REMARK  143  A    between atoms: _347  and  _348
REMARK  144  A    between atoms: _351  and  _353
REMARK  145  A    between atoms: _353  and  _354
REMARK  146  A    between atoms: _353  and  _356
REMARK  147  A    between atoms: _356  and  _357
REMARK  148  A    between atoms: _360  and  _362
REMARK  149  A    between atoms: _362  and  _363
REMARK  150  A    between atoms: _362  and  _365
REMARK  151  A    between atoms: _368  and  _370
REMARK  152  A    between atoms: _370  and  _371
REMARK  153  A    between atoms: _370  and  _373
REMARK  154  A    between atoms: _373  and  _374
REMARK  155  A    between atoms: _377  and  _379
REMARK  156  A    between atoms: _379  and  _380
REMARK  157  A    between atoms: _379  and  _382
REMARK  158  A    between atoms: _382  and  _383
REMARK  159  A    between atoms: _383  and  _384
REMARK  160  A    between atoms: _384  and  _385
REMARK  161  A    between atoms: _385  and  _386
REMARK  162  A    between atoms: _390  and  _392
REMARK  163  A    between atoms: _392  and  _393
REMARK  164  A    between atoms: _392  and  _395
REMARK  165  A    between atoms: _395  and  _396
REMARK  166  A    between atoms: _396  and  _397
REMARK  167  A    between atoms: _399  and  _401
REMARK  168  A    between atoms: _401  and  _402
REMARK  169  A    between atoms: _401  and  _404
REMARK  170  A    between atoms: _404  and  _405
REMARK  171  A    between atoms: _408  and  _410
REMARK  172  A    between atoms: _410  and  _411
REMARK  173  A    between atoms: _413  and  _415
REMARK  174  A    between atoms: _415  and  _416
REMARK  175  A    between atoms: _418  and  _420
REMARK  176  A    between atoms: _420  and  _421
REMARK  177  A    between atoms: _420  and  _423
REMARK  178  A    between atoms: _423  and  _424
REMARK  179  A    between atoms: _427  and  _429
REMARK  180  A    between atoms: _429  and  _430
REMARK  181  A    between atoms: _432  and  _434
REMARK  182  A    between atoms: _434  and  _435
REMARK  183  A    between atoms: _437  and  _439
REMARK  184  A    between atoms: _439  and  _440
REMARK  185  A    between atoms: _439  and  _442
REMARK  186  A    between atoms: _442  and  _443
REMARK  187  A    between atoms: _449  and  _451
REMARK  188  A    between atoms: _451  and  _452
REMARK  189  A    between atoms: _451  and  _454
REMARK  190  A    between atoms: _454  and  _455
REMARK  191  A    between atoms: _458  and  _460
REMARK  192  A    between atoms: _460  and  _461
REMARK  193  A    between atoms: _460  and  _463
REMARK  194  A    between atoms: _466  and  _468
REMARK  195  A    between atoms: _468  and  _469
REMARK  196  A    between atoms: _468  and  _471
REMARK  197  A    between atoms: _471  and  _472
REMARK  198  A    between atoms: _475  and  _477
REMARK  199  A    between atoms: _477  and  _478
REMARK  200  A    between atoms: _477  and  _480
REMARK  201  A    between atoms: _480  and  _481
REMARK  202  A    between atoms: _485  and  _486
REMARK  203  A    between atoms: _491  and  _493
REMARK  204  A    between atoms: _493  and  _494
REMARK  205  A    between atoms: _493  and  _496
REMARK  206  A    between atoms: _496  and  _497
REMARK  207  A    between atoms: _500  and  _502
REMARK  208  A    between atoms: _502  and  _503
REMARK  209  A    between atoms: _502  and  _505
REMARK  210  A    between atoms: _505  and  _506
REMARK  211  A    between atoms: _511  and  _513
REMARK  212  A    between atoms: _513  and  _514
REMARK  213  A    between atoms: _513  and  _516
REMARK  214  A    between atoms: _519  and  _521
REMARK  215  A    between atoms: _521  and  _522
REMARK  216  A    between atoms: _521  and  _524
REMARK  217  A    between atoms: _524  and  _525
REMARK  218  A    between atoms: _528  and  _530
REMARK  219  A    between atoms: _530  and  _531
REMARK  220  A    between atoms: _533  and  _535
REMARK  221  A    between atoms: _535  and  _536
REMARK  222  A    between atoms: _535  and  _538
REMARK  223  A    between atoms: _538  and  _539
REMARK  224  A    between atoms: _539  and  _540
REMARK  225  A    between atoms: _540  and  _541
REMARK  226  A    between atoms: _550  and  _552
REMARK  227  A    between atoms: _552  and  _553
REMARK  228  A    between atoms: _552  and  _555
REMARK  229  A    between atoms: _555  and  _556
REMARK                            x       y       z     vdW  Elec       q    Type
REMARK                         _______ _______ _______ _____ _____    ______ ____
ROOT
ATOM      1  O   HOH     1       2.032   6.672   7.910  0.00  0.00    +0.000 OA
ENDROOT
TORSDOF 0
REMARK  Name = ../refined-set-2016/1k6p/1k6p_pocket.pdb
REMARK  229 active torsions:
REMARK  status: ('A' for Active; 'I' for Inactive)
REMARK    1  A    between atoms: _1  and  _3
REMARK    2  A    between atoms: _3  and  _4
REMARK    3  A    between atoms: _3  and  _6
REMARK    4  A    between atoms: _6  and  _7
REMARK    5  A    between atoms: _7  and  _8
REMARK    6  A    between atoms: _8  and  _9
REMARK    7  A    between atoms: _18  and  _20
REMARK    8  A    between atoms: _20  and  _21
REMARK    9  A    between atoms: _20  and  _23
REMARK   10  A    between atoms: _23  and  _24
REMARK   11  A    between atoms: _27  and  _29
REMARK   12  A    between atoms: _29  and  _30
REMARK   13  A    between atoms: _29  and  _32
REMARK   14  A    between atoms: _32  and  _33
REMARK   15  A    between atoms: _36  and  _38
REMARK   16  A    between atoms: _38  and  _39
REMARK   17  A    between atoms: _38  and  _41
REMARK   18  A    between atoms: _41  and  _42
REMARK   19  A    between atoms: _45  and  _47
REMARK   20  A    between atoms: _47  and  _48
REMARK   21  A    between atoms: _47  and  _50
REMARK   22  A    between atoms: _50  and  _51
REMARK   23  A    between atoms: _54  and  _56
REMARK   24  A    between atoms: _56  and  _57
REMARK   25  A    between atoms: _56  and  _59
REMARK   26  A    between atoms: _59  and  _60
REMARK   27  A    between atoms: _63  and  _65
REMARK   28  A    between atoms: _65  and  _66
REMARK   29  A    between atoms: _68  and  _70
REMARK   30  A    between atoms: _70  and  _71
REMARK   31  A    between atoms: _74  and  _76
REMARK   32  A    between atoms: _76  and  _77
REMARK   33  A    between atoms: _76  and  _79
REMARK   34  A    between atoms: _79  and  _80
REMARK   35  A    between atoms: _83  and  _85
REMARK   36  A    between atoms: _85  and  _86
REMARK   37  A    between atoms: _85  and  _88
REMARK   38  A    between atoms: _88  and  _89
REMARK   39  A    between atoms: _92  and  _94
REMARK   40  A    between atoms: _94  and  _95
REMARK   41  A    between atoms: _94  and  _97
REMARK   42  A    between atoms: _97  and  _98
REMARK   43  A    between atoms: _101  and  _103
REMARK   44  A    between atoms: _103  and  _104
REMARK   45  A    between atoms: _103  and  _106
REMARK   46  A    between atoms: _109  and  _111
REMARK   47  A    between atoms: _111  and  _112
REMARK   48  A    between atoms: _111  and  _114
REMARK   49  A    between atoms: _114  and  _115
REMARK   50  A    between atoms: _115  and  _116
REMARK   51  A    between atoms: _118  and  _120
REMARK   52  A    between atoms: _120  and  _121
REMARK   53  A    between atoms: _120  and  _123
REMARK   54  A    between atoms: _123  and  _124
REMARK   55  A    between atoms: _127  and  _129
REMARK   56  A    between atoms: _129  and  _130
REMARK   57  A    between atoms: _132  and  _134
REMARK   58  A    between atoms: _134  and  _135
REMARK   59  A    between atoms: _137  and  _139
REMARK   60  A    between atoms: _139  and  _140
REMARK   61  A    between atoms: _139  and  _142
REMARK   62  A    between atoms: _142  and  _143
REMARK   63  A    between atoms: _146  and  _148
REMARK   64  A    between atoms: _148  and  _149
REMARK   65  A    between atoms: _151  and  _153
REMARK   66  A    between atoms: _153  and  _154
REMARK   67  A    between atoms: _156  and  _158
REMARK   68  A    between atoms: _158  and  _159
REMARK   69  A    between atoms: _158  and  _161
REMARK   70  A    between atoms: _161  and  _162
REMARK   71  A    between atoms: _168  and  _170
REMARK   72  A    between atoms: _170  and  _171
REMARK   73  A    between atoms: _170  and  _173
REMARK   74  A    between atoms: _173  and  _174
REMARK   75  A    between atoms: _177  and  _179
REMARK   76  A    between atoms: _179  and  _180
REMARK   77  A    between atoms: _179  and  _182
REMARK   78  A    between atoms: _185  and  _187
REMARK   79  A    between atoms: _187  and  _188
REMARK   80  A    between atoms: _187  and  _190
REMARK   81  A    between atoms: _190  and  _191
REMARK   82  A    between atoms: _194  and  _196
REMARK   83  A    between atoms: _196  and  _197
REMARK   84  A    between atoms: _196  and  _199
REMARK   85  A    between atoms: _199  and  _200
REMARK   86  A    between atoms: _204  and  _205
REMARK   87  A    between atoms: _210  and  _212
REMARK   88  A    between atoms: _212  and  _213
REMARK   89  A    between atoms: _212  and  _215
REMARK   90  A    between atoms: _215  and  _216
REMARK   91  A    between atoms: _219  and  _221
REMARK   92  A    between atoms: _221  and  _222
REMARK   93  A    between atoms: _221  and  _224
REMARK   94  A    between atoms: _224  and  _225
REMARK   95  A    between atoms: _230  and  _232
REMARK   96  A    between atoms: _232  and  _233
REMARK   97  A    between atoms: _232  and  _235
REMARK   98  A    between atoms: _238  and  _240
REMARK   99  A    between atoms: _240  and  _241
REMARK  100  A    between atoms: _240  and  _243
REMARK  101  A    between atoms: _243  and  _244
REMARK  102  A    between atoms: _247  and  _249
REMARK  103  A    between atoms: _249  and  _250
REMARK  104  A    between atoms: _252  and  _254
REMARK  105  A    between atoms: _254  and  _255
REMARK  106  A    between atoms: _254  and  _257
REMARK  107  A    between atoms: _257  and  _258
REMARK  108  A    between atoms: _258  and  _259
REMARK  109  A    between atoms: _259  and  _260
REMARK  110  A    between atoms: _269  and  _271
REMARK  111  A    between atoms: _271  and  _272
REMARK  112  A    between atoms: _271  and  _274
REMARK  113  A    between atoms: _274  and  _275
REMARK  114  A    between atoms: _275  and  _276
REMARK  115  A    between atoms: _276  and  _277
REMARK  116  A    between atoms: _286  and  _288
REMARK  117  A    between atoms: _288  and  _289
REMARK  118  A    between atoms: _288  and  _291
REMARK  119  A    between atoms: _291  and  _292
REMARK  120  A    between atoms: _295  and  _297
REMARK  121  A    between atoms: _297  and  _298
REMARK  122  A    between atoms: _297  and  _300
REMARK  123  A    between atoms: _300  and  _301
REMARK  124  A    between atoms: _304  and  _306
REMARK  125  A    between atoms: _306  and  _307
REMARK  126  A    between atoms: _306  and  _309
REMARK  127  A    between atoms: _309  and  _310
REMARK  128  A    between atoms: _313  and  _315
REMARK  129  A    between atoms: _315  and  _316
REMARK  130  A    between atoms: _315  and  _318
REMARK  131  A    between atoms: _318  and  _319
REMARK  132  A    between atoms: _322  and  _324
REMARK  133  A    between atoms: _324  and  _325
REMARK  134  A    between atoms: _327  and  _329
REMARK  135  A    between atoms: _329  and  _330
REMARK  136  A    between atoms: _333  and  _335
REMARK  137  A    between atoms: _335  and  _336
REMARK  138  A    between atoms: _335  and  _338
REMARK  139  A    between atoms: _338  and  _339
REMARK  140  A    between atoms: _342  and  _344
REMARK  141  A    between atoms: _344  and  _345
REMARK  142  A    between atoms: _344  and  _347
REMARK  143  A    between atoms: _347  and  _348
REMARK  144  A    between atoms: _351  and  _353
REMARK  145  A    between atoms: _353  and  _354
REMARK  146  A    between atoms: _353  and  _356
REMARK  147  A    between atoms: _356  and  _357
REMARK  148  A    between atoms: _360  and  _362
REMARK  149  A    between atoms: _362  and  _363
REMARK  150  A    between atoms: _362  and  _365
REMARK  151  A    between atoms: _368  and  _370
REMARK  152  A    between atoms: _370  and  _371
REMARK  153  A    between atoms: _370  and  _373
REMARK  154  A    between atoms: _373  and  _374
REMARK  155  A    between atoms: _377  and  _379
REMARK  156  A    between atoms: _379  and  _380
REMARK  157  A    between atoms: _379  and  _382
REMARK  158  A    between atoms: _382  and  _383
REMARK  159  A    between atoms: _383  and  _384
REMARK  160  A    between atoms: _384  and  _385
REMARK  161  A    between atoms: _385  and  _386
REMARK  162  A    between atoms: _390  and  _392
REMARK  163  A    between atoms: _392  and  _393
REMARK  164  A    between atoms: _392  and  _395
REMARK  165  A    between atoms: _395  and  _396
REMARK  166  A    between atoms: _396  and  _397
REMARK  167  A    between atoms: _399  and  _401
REMARK  168  A    between atoms: _401  and  _402
REMARK  169  A    between atoms: _401  and  _404
REMARK  170  A    between atoms: _404  and  _405
REMARK  171  A    between atoms: _408  and  _410
REMARK  172  A    between atoms: _410  and  _411
REMARK  173  A    between atoms: _413  and  _415
REMARK  174  A    between atoms: _415  and  _416
REMARK  175  A    between atoms: _418  and  _420
REMARK  176  A    between atoms: _420  and  _421
REMARK  177  A    between atoms: _420  and  _423
REMARK  178  A    between atoms: _423  and  _424
REMARK  179  A    between atoms: _427  and  _429
REMARK  180  A    between atoms: _429  and  _430
REMARK  181  A    between atoms: _432  and  _434
REMARK  182  A    between atoms: _434  and  _435
REMARK  183  A    between atoms: _437  and  _439
REMARK  184  A    between atoms: _439  and  _440
REMARK  185  A    between atoms: _439  and  _442
REMARK  186  A    between atoms: _442  and  _443
REMARK  187  A    between atoms: _449  and  _451
REMARK  188  A    between atoms: _451  and  _452
REMARK  189  A    between atoms: _451  and  _454
REMARK  190  A    between atoms: _454  and  _455
REMARK  191  A    between atoms: _458  and  _460
REMARK  192  A    between atoms: _460  and  _461
REMARK  193  A    between atoms: _460  and  _463
REMARK  194  A    between atoms: _466  and  _468
REMARK  195  A    between atoms: _468  and  _469
REMARK  196  A    between atoms: _468  and  _471
REMARK  197  A    between atoms: _471  and  _472
REMARK  198  A    between atoms: _475  and  _477
REMARK  199  A    between atoms: _477  and  _478
REMARK  200  A    between atoms: _477  and  _480
REMARK  201  A    between atoms: _480  and  _481
REMARK  202  A    between atoms: _485  and  _486
REMARK  203  A    between atoms: _491  and  _493
REMARK  204  A    between atoms: _493  and  _494
REMARK  205  A    between atoms: _493  and  _496
REMARK  206  A    between atoms: _496  and  _497
REMARK  207  A    between atoms: _500  and  _502
REMARK  208  A    between atoms: _502  and  _503
REMARK  209  A    between atoms: _502  and  _505
REMARK  210  A    between atoms: _505  and  _506
REMARK  211  A    between atoms: _511  and  _513
REMARK  212  A    between atoms: _513  and  _514
REMARK  213  A    between atoms: _513  and  _516
REMARK  214  A    between atoms: _519  and  _521
REMARK  215  A    between atoms: _521  and  _522
REMARK  216  A    between atoms: _521  and  _524
REMARK  217  A    between atoms: _524  and  _525
REMARK  218  A    between atoms: _528  and  _530
REMARK  219  A    between atoms: _530  and  _531
REMARK  220  A    between atoms: _533  and  _535
REMARK  221  A    between atoms: _535  and  _536
REMARK  222  A    between atoms: _535  and  _538
REMARK  223  A    between atoms: _538  and  _539
REMARK  224  A    between atoms: _539  and  _540
REMARK  225  A    between atoms: _540  and  _541
REMARK  226  A    between atoms: _550  and  _552
REMARK  227  A    between atoms: _552  and  _553
REMARK  228  A    between atoms: _552  and  _555
REMARK  229  A    between atoms: _555  and  _556
REMARK                            x       y       z     vdW  Elec       q    Type
REMARK                         _______ _______ _______ _____ _____    ______ ____
ROOT
ATOM      1  O   HOH     1      -0.975  10.544  13.351  0.00  0.00    +0.000 OA
ENDROOT
TORSDOF 0
REMARK  Name = ../refined-set-2016/1k6p/1k6p_pocket.pdb
REMARK  229 active torsions:
REMARK  status: ('A' for Active; 'I' for Inactive)
REMARK    1  A    between atoms: _1  and  _3
REMARK    2  A    between atoms: _3  and  _4
REMARK    3  A    between atoms: _3  and  _6
REMARK    4  A    between atoms: _6  and  _7
REMARK    5  A    between atoms: _7  and  _8
REMARK    6  A    between atoms: _8  and  _9
REMARK    7  A    between atoms: _18  and  _20
REMARK    8  A    between atoms: _20  and  _21
REMARK    9  A    between atoms: _20  and  _23
REMARK   10  A    between atoms: _23  and  _24
REMARK   11  A    between atoms: _27  and  _29
REMARK   12  A    between atoms: _29  and  _30
REMARK   13  A    between atoms: _29  and  _32
REMARK   14  A    between atoms: _32  and  _33
REMARK   15  A    between atoms: _36  and  _38
REMARK   16  A    between atoms: _38  and  _39
REMARK   17  A    between atoms: _38  and  _41
REMARK   18  A    between atoms: _41  and  _42
REMARK   19  A    between atoms: _45  and  _47
REMARK   20  A    between atoms: _47  and  _48
REMARK   21  A    between atoms: _47  and  _50
REMARK   22  A    between atoms: _50  and  _51
REMARK   23  A    between atoms: _54  and  _56
REMARK   24  A    between atoms: _56  and  _57
REMARK   25  A    between atoms: _56  and  _59
REMARK   26  A    between atoms: _59  and  _60
REMARK   27  A    between atoms: _63  and  _65
REMARK   28  A    between atoms: _65  and  _66
REMARK   29  A    between atoms: _68  and  _70
REMARK   30  A    between atoms: _70  and  _71
REMARK   31  A    between atoms: _74  and  _76
REMARK   32  A    between atoms: _76  and  _77
REMARK   33  A    between atoms: _76  and  _79
REMARK   34  A    between atoms: _79  and  _80
REMARK   35  A    between atoms: _83  and  _85
REMARK   36  A    between atoms: _85  and  _86
REMARK   37  A    between atoms: _85  and  _88
REMARK   38  A    between atoms: _88  and  _89
REMARK   39  A    between atoms: _92  and  _94
REMARK   40  A    between atoms: _94  and  _95
REMARK   41  A    between atoms: _94  and  _97
REMARK   42  A    between atoms: _97  and  _98
REMARK   43  A    between atoms: _101  and  _103
REMARK   44  A    between atoms: _103  and  _104
REMARK   45  A    between atoms: _103  and  _106
REMARK   46  A    between atoms: _109  and  _111
REMARK   47  A    between atoms: _111  and  _112
REMARK   48  A    between atoms: _111  and  _114
REMARK   49  A    between atoms: _114  and  _115
REMARK   50  A    between atoms: _115  and  _116
REMARK   51  A    between atoms: _118  and  _120
REMARK   52  A    between atoms: _120  and  _121
REMARK   53  A    between atoms: _120  and  _123
REMARK   54  A    between atoms: _123  and  _124
REMARK   55  A    between atoms: _127  and  _129
REMARK   56  A    between atoms: _129  and  _130
REMARK   57  A    between atoms: _132  and  _134
REMARK   58  A    between atoms: _134  and  _135
REMARK   59  A    between atoms: _137  and  _139
REMARK   60  A    between atoms: _139  and  _140
REMARK   61  A    between atoms: _139  and  _142
REMARK   62  A    between atoms: _142  and  _143
REMARK   63  A    between atoms: _146  and  _148
REMARK   64  A    between atoms: _148  and  _149
REMARK   65  A    between atoms: _151  and  _153
REMARK   66  A    between atoms: _153  and  _154
REMARK   67  A    between atoms: _156  and  _158
REMARK   68  A    between atoms: _158  and  _159
REMARK   69  A    between atoms: _158  and  _161
REMARK   70  A    between atoms: _161  and  _162
REMARK   71  A    between atoms: _168  and  _170
REMARK   72  A    between atoms: _170  and  _171
REMARK   73  A    between atoms: _170  and  _173
REMARK   74  A    between atoms: _173  and  _174
REMARK   75  A    between atoms: _177  and  _179
REMARK   76  A    between atoms: _179  and  _180
REMARK   77  A    between atoms: _179  and  _182
REMARK   78  A    between atoms: _185  and  _187
REMARK   79  A    between atoms: _187  and  _188
REMARK   80  A    between atoms: _187  and  _190
REMARK   81  A    between atoms: _190  and  _191
REMARK   82  A    between atoms: _194  and  _196
REMARK   83  A    between atoms: _196  and  _197
REMARK   84  A    between atoms: _196  and  _199
REMARK   85  A    between atoms: _199  and  _200
REMARK   86  A    between atoms: _204  and  _205
REMARK   87  A    between atoms: _210  and  _212
REMARK   88  A    between atoms: _212  and  _213
REMARK   89  A    between atoms: _212  and  _215
REMARK   90  A    between atoms: _215  and  _216
REMARK   91  A    between atoms: _219  and  _221
REMARK   92  A    between atoms: _221  and  _222
REMARK   93  A    between atoms: _221  and  _224
REMARK   94  A    between atoms: _224  and  _225
REMARK   95  A    between atoms: _230  and  _232
REMARK   96  A    between atoms: _232  and  _233
REMARK   97  A    between atoms: _232  and  _235
REMARK   98  A    between atoms: _238  and  _240
REMARK   99  A    between atoms: _240  and  _241
REMARK  100  A    between atoms: _240  and  _243
REMARK  101  A    between atoms: _243  and  _244
REMARK  102  A    between atoms: _247  and  _249
REMARK  103  A    between atoms: _249  and  _250
REMARK  104  A    between atoms: _252  and  _254
REMARK  105  A    between atoms: _254  and  _255
REMARK  106  A    between atoms: _254  and  _257
REMARK  107  A    between atoms: _257  and  _258
REMARK  108  A    between atoms: _258  and  _259
REMARK  109  A    between atoms: _259  and  _260
REMARK  110  A    between atoms: _269  and  _271
REMARK  111  A    between atoms: _271  and  _272
REMARK  112  A    between atoms: _271  and  _274
REMARK  113  A    between atoms: _274  and  _275
REMARK  114  A    between atoms: _275  and  _276
REMARK  115  A    between atoms: _276  and  _277
REMARK  116  A    between atoms: _286  and  _288
REMARK  117  A    between atoms: _288  and  _289
REMARK  118  A    between atoms: _288  and  _291
REMARK  119  A    between atoms: _291  and  _292
REMARK  120  A    between atoms: _295  and  _297
REMARK  121  A    between atoms: _297  and  _298
REMARK  122  A    between atoms: _297  and  _300
REMARK  123  A    between atoms: _300  and  _301
REMARK  124  A    between atoms: _304  and  _306
REMARK  125  A    between atoms: _306  and  _307
REMARK  126  A    between atoms: _306  and  _309
REMARK  127  A    between atoms: _309  and  _310
REMARK  128  A    between atoms: _313  and  _315
REMARK  129  A    between atoms: _315  and  _316
REMARK  130  A    between atoms: _315  and  _318
REMARK  131  A    between atoms: _318  and  _319
REMARK  132  A    between atoms: _322  and  _324
REMARK  133  A    between atoms: _324  and  _325
REMARK  134  A    between atoms: _327  and  _329
REMARK  135  A    between atoms: _329  and  _330
REMARK  136  A    between atoms: _333  and  _335
REMARK  137  A    between atoms: _335  and  _336
REMARK  138  A    between atoms: _335  and  _338
REMARK  139  A    between atoms: _338  and  _339
REMARK  140  A    between atoms: _342  and  _344
REMARK  141  A    between atoms: _344  and  _345
REMARK  142  A    between atoms: _344  and  _347
REMARK  143  A    between atoms: _347  and  _348
REMARK  144  A    between atoms: _351  and  _353
REMARK  145  A    between atoms: _353  and  _354
REMARK  146  A    between atoms: _353  and  _356
REMARK  147  A    between atoms: _356  and  _357
REMARK  148  A    between atoms: _360  and  _362
REMARK  149  A    between atoms: _362  and  _363
REMARK  150  A    between atoms: _362  and  _365
REMARK  151  A    between atoms: _368  and  _370
REMARK  152  A    between atoms: _370  and  _371
REMARK  153  A    between atoms: _370  and  _373
REMARK  154  A    between atoms: _373  and  _374
REMARK  155  A    between atoms: _377  and  _379
REMARK  156  A    between atoms: _379  and  _380
REMARK  157  A    between atoms: _379  and  _382
REMARK  158  A    between atoms: _382  and  _383
REMARK  159  A    between atoms: _383  and  _384
REMARK  160  A    between atoms: _384  and  _385
REMARK  161  A    between atoms: _385  and  _386
REMARK  162  A    between atoms: _390  and  _392
REMARK  163  A    between atoms: _392  and  _393
REMARK  164  A    between atoms: _392  and  _395
REMARK  165  A    between atoms: _395  and  _396
REMARK  166  A    between atoms: _396  and  _397
REMARK  167  A    between atoms: _399  and  _401
REMARK  168  A    between atoms: _401  and  _402
REMARK  169  A    between atoms: _401  and  _404
REMARK  170  A    between atoms: _404  and  _405
REMARK  171  A    between atoms: _408  and  _410
REMARK  172  A    between atoms: _410  and  _411
REMARK  173  A    between atoms: _413  and  _415
REMARK  174  A    between atoms: _415  and  _416
REMARK  175  A    between atoms: _418  and  _420
REMARK  176  A    between atoms: _420  and  _421
REMARK  177  A    between atoms: _420  and  _423
REMARK  178  A    between atoms: _423  and  _424
REMARK  179  A    between atoms: _427  and  _429
REMARK  180  A    between atoms: _429  and  _430
REMARK  181  A    between atoms: _432  and  _434
REMARK  182  A    between atoms: _434  and  _435
REMARK  183  A    between atoms: _437  and  _439
REMARK  184  A    between atoms: _439  and  _440
REMARK  185  A    between atoms: _439  and  _442
REMARK  186  A    between atoms: _442  and  _443
REMARK  187  A    between atoms: _449  and  _451
REMARK  188  A    between atoms: _451  and  _452
REMARK  189  A    between atoms: _451  and  _454
REMARK  190  A    between atoms: _454  and  _455
REMARK  191  A    between atoms: _458  and  _460
REMARK  192  A    between atoms: _460  and  _461
REMARK  193  A    between atoms: _460  and  _463
REMARK  194  A    between atoms: _466  and  _468
REMARK  195  A    between atoms: _468  and  _469
REMARK  196  A    between atoms: _468  and  _471
REMARK  197  A    between atoms: _471  and  _472
REMARK  198  A    between atoms: _475  and  _477
REMARK  199  A    between atoms: _477  and  _478
REMARK  200  A    between atoms: _477  and  _480
REMARK  201  A    between atoms: _480  and  _481
REMARK  202  A    between atoms: _485  and  _486
REMARK  203  A    between atoms: _491  and  _493
REMARK  204  A    between atoms: _493  and  _494
REMARK  205  A    between atoms: _493  and  _496
REMARK  206  A    between atoms: _496  and  _497
REMARK  207  A    between atoms: _500  and  _502
REMARK  208  A    between atoms: _502  and  _503
REMARK  209  A    between atoms: _502  and  _505
REMARK  210  A    between atoms: _505  and  _506
REMARK  211  A    between atoms: _511  and  _513
REMARK  212  A    between atoms: _513  and  _514
REMARK  213  A    between atoms: _513  and  _516
REMARK  214  A    between atoms: _519  and  _521
REMARK  215  A    between atoms: _521  and  _522
REMARK  216  A    between atoms: _521  and  _524
REMARK  217  A    between atoms: _524  and  _525
REMARK  218  A    between atoms: _528  and  _530
REMARK  219  A    between atoms: _530  and  _531
REMARK  220  A    between atoms: _533  and  _535
REMARK  221  A    between atoms: _535  and  _536
REMARK  222  A    between atoms: _535  and  _538
REMARK  223  A    between atoms: _538  and  _539
REMARK  224  A    between atoms: _539  and  _540
REMARK  225  A    between atoms: _540  and  _541
REMARK  226  A    between atoms: _550  and  _552
REMARK  227  A    between atoms: _552  and  _553
REMARK  228  A    between atoms: _552  and  _555
REMARK  229  A    between atoms: _555  and  _556
REMARK                            x       y       z     vdW  Elec       q    Type
REMARK                         _______ _______ _______ _____ _____    ______ ____
ROOT
ATOM      1  O   HOH     1      -0.138 -11.649  18.147  0.00  0.00    +0.000 OA
ENDROOT
TORSDOF 0
REMARK  Name = ../refined-set-2016/1k6p/1k6p_pocket.pdb
REMARK  229 active torsions:
REMARK  status: ('A' for Active; 'I' for Inactive)
REMARK    1  A    between atoms: _1  and  _3
REMARK    2  A    between atoms: _3  and  _4
REMARK    3  A    between atoms: _3  and  _6
REMARK    4  A    between atoms: _6  and  _7
REMARK    5  A    between atoms: _7  and  _8
REMARK    6  A    between atoms: _8  and  _9
REMARK    7  A    between atoms: _18  and  _20
REMARK    8  A    between atoms: _20  and  _21
REMARK    9  A    between atoms: _20  and  _23
REMARK   10  A    between atoms: _23  and  _24
REMARK   11  A    between atoms: _27  and  _29
REMARK   12  A    between atoms: _29  and  _30
REMARK   13  A    between atoms: _29  and  _32
REMARK   14  A    between atoms: _32  and  _33
REMARK   15  A    between atoms: _36  and  _38
REMARK   16  A    between atoms: _38  and  _39
REMARK   17  A    between atoms: _38  and  _41
REMARK   18  A    between atoms: _41  and  _42
REMARK   19  A    between atoms: _45  and  _47
REMARK   20  A    between atoms: _47  and  _48
REMARK   21  A    between atoms: _47  and  _50
REMARK   22  A    between atoms: _50  and  _51
REMARK   23  A    between atoms: _54  and  _56
REMARK   24  A    between atoms: _56  and  _57
REMARK   25  A    between atoms: _56  and  _59
REMARK   26  A    between atoms: _59  and  _60
REMARK   27  A    between atoms: _63  and  _65
REMARK   28  A    between atoms: _65  and  _66
REMARK   29  A    between atoms: _68  and  _70
REMARK   30  A    between atoms: _70  and  _71
REMARK   31  A    between atoms: _74  and  _76
REMARK   32  A    between atoms: _76  and  _77
REMARK   33  A    between atoms: _76  and  _79
REMARK   34  A    between atoms: _79  and  _80
REMARK   35  A    between atoms: _83  and  _85
REMARK   36  A    between atoms: _85  and  _86
REMARK   37  A    between atoms: _85  and  _88
REMARK   38  A    between atoms: _88  and  _89
REMARK   39  A    between atoms: _92  and  _94
REMARK   40  A    between atoms: _94  and  _95
REMARK   41  A    between atoms: _94  and  _97
REMARK   42  A    between atoms: _97  and  _98
REMARK   43  A    between atoms: _101  and  _103
REMARK   44  A    between atoms: _103  and  _104
REMARK   45  A    between atoms: _103  and  _106
REMARK   46  A    between atoms: _109  and  _111
REMARK   47  A    between atoms: _111  and  _112
REMARK   48  A    between atoms: _111  and  _114
REMARK   49  A    between atoms: _114  and  _115
REMARK   50  A    between atoms: _115  and  _116
REMARK   51  A    between atoms: _118  and  _120
REMARK   52  A    between atoms: _120  and  _121
REMARK   53  A    between atoms: _120  and  _123
REMARK   54  A    between atoms: _123  and  _124
REMARK   55  A    between atoms: _127  and  _129
REMARK   56  A    between atoms: _129  and  _130
REMARK   57  A    between atoms: _132  and  _134
REMARK   58  A    between atoms: _134  and  _135
REMARK   59  A    between atoms: _137  and  _139
REMARK   60  A    between atoms: _139  and  _140
REMARK   61  A    between atoms: _139  and  _142
REMARK   62  A    between atoms: _142  and  _143
REMARK   63  A    between atoms: _146  and  _148
REMARK   64  A    between atoms: _148  and  _149
REMARK   65  A    between atoms: _151  and  _153
REMARK   66  A    between atoms: _153  and  _154
REMARK   67  A    between atoms: _156  and  _158
REMARK   68  A    between atoms: _158  and  _159
REMARK   69  A    between atoms: _158  and  _161
REMARK   70  A    between atoms: _161  and  _162
REMARK   71  A    between atoms: _168  and  _170
REMARK   72  A    between atoms: _170  and  _171
REMARK   73  A    between atoms: _170  and  _173
REMARK   74  A    between atoms: _173  and  _174
REMARK   75  A    between atoms: _177  and  _179
REMARK   76  A    between atoms: _179  and  _180
REMARK   77  A    between atoms: _179  and  _182
REMARK   78  A    between atoms: _185  and  _187
REMARK   79  A    between atoms: _187  and  _188
REMARK   80  A    between atoms: _187  and  _190
REMARK   81  A    between atoms: _190  and  _191
REMARK   82  A    between atoms: _194  and  _196
REMARK   83  A    between atoms: _196  and  _197
REMARK   84  A    between atoms: _196  and  _199
REMARK   85  A    between atoms: _199  and  _200
REMARK   86  A    between atoms: _204  and  _205
REMARK   87  A    between atoms: _210  and  _212
REMARK   88  A    between atoms: _212  and  _213
REMARK   89  A    between atoms: _212  and  _215
REMARK   90  A    between atoms: _215  and  _216
REMARK   91  A    between atoms: _219  and  _221
REMARK   92  A    between atoms: _221  and  _222
REMARK   93  A    between atoms: _221  and  _224
REMARK   94  A    between atoms: _224  and  _225
REMARK   95  A    between atoms: _230  and  _232
REMARK   96  A    between atoms: _232  and  _233
REMARK   97  A    between atoms: _232  and  _235
REMARK   98  A    between atoms: _238  and  _240
REMARK   99  A    between atoms: _240  and  _241
REMARK  100  A    between atoms: _240  and  _243
REMARK  101  A    between atoms: _243  and  _244
REMARK  102  A    between atoms: _247  and  _249
REMARK  103  A    between atoms: _249  and  _250
REMARK  104  A    between atoms: _252  and  _254
REMARK  105  A    between atoms: _254  and  _255
REMARK  106  A    between atoms: _254  and  _257
REMARK  107  A    between atoms: _257  and  _258
REMARK  108  A    between atoms: _258  and  _259
REMARK  109  A    between atoms: _259  and  _260
REMARK  110  A    between atoms: _269  and  _271
REMARK  111  A    between atoms: _271  and  _272
REMARK  112  A    between atoms: _271  and  _274
REMARK  113  A    between atoms: _274  and  _275
REMARK  114  A    between atoms: _275  and  _276
REMARK  115  A    between atoms: _276  and  _277
REMARK  116  A    between atoms: _286  and  _288
REMARK  117  A    between atoms: _288  and  _289
REMARK  118  A    between atoms: _288  and  _291
REMARK  119  A    between atoms: _291  and  _292
REMARK  120  A    between atoms: _295  and  _297
REMARK  121  A    between atoms: _297  and  _298
REMARK  122  A    between atoms: _297  and  _300
REMARK  123  A    between atoms: _300  and  _301
REMARK  124  A    between atoms: _304  and  _306
REMARK  125  A    between atoms: _306  and  _307
REMARK  126  A    between atoms: _306  and  _309
REMARK  127  A    between atoms: _309  and  _310
REMARK  128  A    between atoms: _313  and  _315
REMARK  129  A    between atoms: _315  and  _316
REMARK  130  A    between atoms: _315  and  _318
REMARK  131  A    between atoms: _318  and  _319
REMARK  132  A    between atoms: _322  and  _324
REMARK  133  A    between atoms: _324  and  _325
REMARK  134  A    between atoms: _327  and  _329
REMARK  135  A    between atoms: _329  and  _330
REMARK  136  A    between atoms: _333  and  _335
REMARK  137  A    between atoms: _335  and  _336
REMARK  138  A    between atoms: _335  and  _338
REMARK  139  A    between atoms: _338  and  _339
REMARK  140  A    between atoms: _342  and  _344
REMARK  141  A    between atoms: _344  and  _345
REMARK  142  A    between atoms: _344  and  _347
REMARK  143  A    between atoms: _347  and  _348
REMARK  144  A    between atoms: _351  and  _353
REMARK  145  A    between atoms: _353  and  _354
REMARK  146  A    between atoms: _353  and  _356
REMARK  147  A    between atoms: _356  and  _357
REMARK  148  A    between atoms: _360  and  _362
REMARK  149  A    between atoms: _362  and  _363
REMARK  150  A    between atoms: _362  and  _365
REMARK  151  A    between atoms: _368  and  _370
REMARK  152  A    between atoms: _370  and  _371
REMARK  153  A    between atoms: _370  and  _373
REMARK  154  A    between atoms: _373  and  _374
REMARK  155  A    between atoms: _377  and  _379
REMARK  156  A    between atoms: _379  and  _380
REMARK  157  A    between atoms: _379  and  _382
REMARK  158  A    between atoms: _382  and  _383
REMARK  159  A    between atoms: _383  and  _384
REMARK  160  A    between atoms: _384  and  _385
REMARK  161  A    between atoms: _385  and  _386
REMARK  162  A    between atoms: _390  and  _392
REMARK  163  A    between atoms: _392  and  _393
REMARK  164  A    between atoms: _392  and  _395
REMARK  165  A    between atoms: _395  and  _396
REMARK  166  A    between atoms: _396  and  _397
REMARK  167  A    between atoms: _399  and  _401
REMARK  168  A    between atoms: _401  and  _402
REMARK  169  A    between atoms: _401  and  _404
REMARK  170  A    between atoms: _404  and  _405
REMARK  171  A    between atoms: _408  and  _410
REMARK  172  A    between atoms: _410  and  _411
REMARK  173  A    between atoms: _413  and  _415
REMARK  174  A    between atoms: _415  and  _416
REMARK  175  A    between atoms: _418  and  _420
REMARK  176  A    between atoms: _420  and  _421
REMARK  177  A    between atoms: _420  and  _423
REMARK  178  A    between atoms: _423  and  _424
REMARK  179  A    between atoms: _427  and  _429
REMARK  180  A    between atoms: _429  and  _430
REMARK  181  A    between atoms: _432  and  _434
REMARK  182  A    between atoms: _434  and  _435
REMARK  183  A    between atoms: _437  and  _439
REMARK  184  A    between atoms: _439  and  _440
REMARK  185  A    between atoms: _439  and  _442
REMARK  186  A    between atoms: _442  and  _443
REMARK  187  A    between atoms: _449  and  _451
REMARK  188  A    between atoms: _451  and  _452
REMARK  189  A    between atoms: _451  and  _454
REMARK  190  A    between atoms: _454  and  _455
REMARK  191  A    between atoms: _458  and  _460
REMARK  192  A    between atoms: _460  and  _461
REMARK  193  A    between atoms: _460  and  _463
REMARK  194  A    between atoms: _466  and  _468
REMARK  195  A    between atoms: _468  and  _469
REMARK  196  A    between atoms: _468  and  _471
REMARK  197  A    between atoms: _471  and  _472
REMARK  198  A    between atoms: _475  and  _477
REMARK  199  A    between atoms: _477  and  _478
REMARK  200  A    between atoms: _477  and  _480
REMARK  201  A    between atoms: _480  and  _481
REMARK  202  A    between atoms: _485  and  _486
REMARK  203  A    between atoms: _491  and  _493
REMARK  204  A    between atoms: _493  and  _494
REMARK  205  A    between atoms: _493  and  _496
REMARK  206  A    between atoms: _496  and  _497
REMARK  207  A    between atoms: _500  and  _502
REMARK  208  A    between atoms: _502  and  _503
REMARK  209  A    between atoms: _502  and  _505
REMARK  210  A    between atoms: _505  and  _506
REMARK  211  A    between atoms: _511  and  _513
REMARK  212  A    between atoms: _513  and  _514
REMARK  213  A    between atoms: _513  and  _516
REMARK  214  A    between atoms: _519  and  _521
REMARK  215  A    between atoms: _521  and  _522
REMARK  216  A    between atoms: _521  and  _524
REMARK  217  A    between atoms: _524  and  _525
REMARK  218  A    between atoms: _528  and  _530
REMARK  219  A    between atoms: _530  and  _531
REMARK  220  A    between atoms: _533  and  _535
REMARK  221  A    between atoms: _535  and  _536
REMARK  222  A    between atoms: _535  and  _538
REMARK  223  A    between atoms: _538  and  _539
REMARK  224  A    between atoms: _539  and  _540
REMARK  225  A    between atoms: _540  and  _541
REMARK  226  A    between atoms: _550  and  _552
REMARK  227  A    between atoms: _552  and  _553
REMARK  228  A    between atoms: _552  and  _555
REMARK  229  A    between atoms: _555  and  _556
REMARK                            x       y       z     vdW  Elec       q    Type
REMARK                         _______ _______ _______ _____ _____    ______ ____
ROOT
ATOM      1  O   HOH     1      10.969  -3.658   5.905  0.00  0.00    +0.000 OA
ENDROOT
TORSDOF 0
REMARK  Name = ../refined-set-2016/1k6p/1k6p_pocket.pdb
REMARK  229 active torsions:
REMARK  status: ('A' for Active; 'I' for Inactive)
REMARK    1  A    between atoms: _1  and  _3
REMARK    2  A    between atoms: _3  and  _4
REMARK    3  A    between atoms: _3  and  _6
REMARK    4  A    between atoms: _6  and  _7
REMARK    5  A    between atoms: _7  and  _8
REMARK    6  A    between atoms: _8  and  _9
REMARK    7  A    between atoms: _18  and  _20
REMARK    8  A    between atoms: _20  and  _21
REMARK    9  A    between atoms: _20  and  _23
REMARK   10  A    between atoms: _23  and  _24
REMARK   11  A    between atoms: _27  and  _29
REMARK   12  A    between atoms: _29  and  _30
REMARK   13  A    between atoms: _29  and  _32
REMARK   14  A    between atoms: _32  and  _33
REMARK   15  A    between atoms: _36  and  _38
REMARK   16  A    between atoms: _38  and  _39
REMARK   17  A    between atoms: _38  and  _41
REMARK   18  A    between atoms: _41  and  _42
REMARK   19  A    between atoms: _45  and  _47
REMARK   20  A    between atoms: _47  and  _48
REMARK   21  A    between atoms: _47  and  _50
REMARK   22  A    between atoms: _50  and  _51
REMARK   23  A    between atoms: _54  and  _56
REMARK   24  A    between atoms: _56  and  _57
REMARK   25  A    between atoms: _56  and  _59
REMARK   26  A    between atoms: _59  and  _60
REMARK   27  A    between atoms: _63  and  _65
REMARK   28  A    between atoms: _65  and  _66
REMARK   29  A    between atoms: _68  and  _70
REMARK   30  A    between atoms: _70  and  _71
REMARK   31  A    between atoms: _74  and  _76
REMARK   32  A    between atoms: _76  and  _77
REMARK   33  A    between atoms: _76  and  _79
REMARK   34  A    between atoms: _79  and  _80
REMARK   35  A    between atoms: _83  and  _85
REMARK   36  A    between atoms: _85  and  _86
REMARK   37  A    between atoms: _85  and  _88
REMARK   38  A    between atoms: _88  and  _89
REMARK   39  A    between atoms: _92  and  _94
REMARK   40  A    between atoms: _94  and  _95
REMARK   41  A    between atoms: _94  and  _97
REMARK   42  A    between atoms: _97  and  _98
REMARK   43  A    between atoms: _101  and  _103
REMARK   44  A    between atoms: _103  and  _104
REMARK   45  A    between atoms: _103  and  _106
REMARK   46  A    between atoms: _109  and  _111
REMARK   47  A    between atoms: _111  and  _112
REMARK   48  A    between atoms: _111  and  _114
REMARK   49  A    between atoms: _114  and  _115
REMARK   50  A    between atoms: _115  and  _116
REMARK   51  A    between atoms: _118  and  _120
REMARK   52  A    between atoms: _120  and  _121
REMARK   53  A    between atoms: _120  and  _123
REMARK   54  A    between atoms: _123  and  _124
REMARK   55  A    between atoms: _127  and  _129
REMARK   56  A    between atoms: _129  and  _130
REMARK   57  A    between atoms: _132  and  _134
REMARK   58  A    between atoms: _134  and  _135
REMARK   59  A    between atoms: _137  and  _139
REMARK   60  A    between atoms: _139  and  _140
REMARK   61  A    between atoms: _139  and  _142
REMARK   62  A    between atoms: _142  and  _143
REMARK   63  A    between atoms: _146  and  _148
REMARK   64  A    between atoms: _148  and  _149
REMARK   65  A    between atoms: _151  and  _153
REMARK   66  A    between atoms: _153  and  _154
REMARK   67  A    between atoms: _156  and  _158
REMARK   68  A    between atoms: _158  and  _159
REMARK   69  A    between atoms: _158  and  _161
REMARK   70  A    between atoms: _161  and  _162
REMARK   71  A    between atoms: _168  and  _170
REMARK   72  A    between atoms: _170  and  _171
REMARK   73  A    between atoms: _170  and  _173
REMARK   74  A    between atoms: _173  and  _174
REMARK   75  A    between atoms: _177  and  _179
REMARK   76  A    between atoms: _179  and  _180
REMARK   77  A    between atoms: _179  and  _182
REMARK   78  A    between atoms: _185  and  _187
REMARK   79  A    between atoms: _187  and  _188
REMARK   80  A    between atoms: _187  and  _190
REMARK   81  A    between atoms: _190  and  _191
REMARK   82  A    between atoms: _194  and  _196
REMARK   83  A    between atoms: _196  and  _197
REMARK   84  A    between atoms: _196  and  _199
REMARK   85  A    between atoms: _199  and  _200
REMARK   86  A    between atoms: _204  and  _205
REMARK   87  A    between atoms: _210  and  _212
REMARK   88  A    between atoms: _212  and  _213
REMARK   89  A    between atoms: _212  and  _215
REMARK   90  A    between atoms: _215  and  _216
REMARK   91  A    between atoms: _219  and  _221
REMARK   92  A    between atoms: _221  and  _222
REMARK   93  A    between atoms: _221  and  _224
REMARK   94  A    between atoms: _224  and  _225
REMARK   95  A    between atoms: _230  and  _232
REMARK   96  A    between atoms: _232  and  _233
REMARK   97  A    between atoms: _232  and  _235
REMARK   98  A    between atoms: _238  and  _240
REMARK   99  A    between atoms: _240  and  _241
REMARK  100  A    between atoms: _240  and  _243
REMARK  101  A    between atoms: _243  and  _244
REMARK  102  A    between atoms: _247  and  _249
REMARK  103  A    between atoms: _249  and  _250
REMARK  104  A    between atoms: _252  and  _254
REMARK  105  A    between atoms: _254  and  _255
REMARK  106  A    between atoms: _254  and  _257
REMARK  107  A    between atoms: _257  and  _258
REMARK  108  A    between atoms: _258  and  _259
REMARK  109  A    between atoms: _259  and  _260
REMARK  110  A    between atoms: _269  and  _271
REMARK  111  A    between atoms: _271  and  _272
REMARK  112  A    between atoms: _271  and  _274
REMARK  113  A    between atoms: _274  and  _275
REMARK  114  A    between atoms: _275  and  _276
REMARK  115  A    between atoms: _276  and  _277
REMARK  116  A    between atoms: _286  and  _288
REMARK  117  A    between atoms: _288  and  _289
REMARK  118  A    between atoms: _288  and  _291
REMARK  119  A    between atoms: _291  and  _292
REMARK  120  A    between atoms: _295  and  _297
REMARK  121  A    between atoms: _297  and  _298
REMARK  122  A    between atoms: _297  and  _300
REMARK  123  A    between atoms: _300  and  _301
REMARK  124  A    between atoms: _304  and  _306
REMARK  125  A    between atoms: _306  and  _307
REMARK  126  A    between atoms: _306  and  _309
REMARK  127  A    between atoms: _309  and  _310
REMARK  128  A    between atoms: _313  and  _315
REMARK  129  A    between atoms: _315  and  _316
REMARK  130  A    between atoms: _315  and  _318
REMARK  131  A    between atoms: _318  and  _319
REMARK  132  A    between atoms: _322  and  _324
REMARK  133  A    between atoms: _324  and  _325
REMARK  134  A    between atoms: _327  and  _329
REMARK  135  A    between atoms: _329  and  _330
REMARK  136  A    between atoms: _333  and  _335
REMARK  137  A    between atoms: _335  and  _336
REMARK  138  A    between atoms: _335  and  _338
REMARK  139  A    between atoms: _338  and  _339
REMARK  140  A    between atoms: _342  and  _344
REMARK  141  A    between atoms: _344  and  _345
REMARK  142  A    between atoms: _344  and  _347
REMARK  143  A    between atoms: _347  and  _348
REMARK  144  A    between atoms: _351  and  _353
REMARK  145  A    between atoms: _353  and  _354
REMARK  146  A    between atoms: _353  and  _356
REMARK  147  A    between atoms: _356  and  _357
REMARK  148  A    between atoms: _360  and  _362
REMARK  149  A    between atoms: _362  and  _363
REMARK  150  A    between atoms: _362  and  _365
REMARK  151  A    between atoms: _368  and  _370
REMARK  152  A    between atoms: _370  and  _371
REMARK  153  A    between atoms: _370  and  _373
REMARK  154  A    between atoms: _373  and  _374
REMARK  155  A    between atoms: _377  and  _379
REMARK  156  A    between atoms: _379  and  _380
REMARK  157  A    between atoms: _379  and  _382
REMARK  158  A    between atoms: _382  and  _383
REMARK  159  A    between atoms: _383  and  _384
REMARK  160  A    between atoms: _384  and  _385
REMARK  161  A    between atoms: _385  and  _386
REMARK  162  A    between atoms: _390  and  _392
REMARK  163  A    between atoms: _392  and  _393
REMARK  164  A    between atoms: _392  and  _395
REMARK  165  A    between atoms: _395  and  _396
REMARK  166  A    between atoms: _396  and  _397
REMARK  167  A    between atoms: _399  and  _401
REMARK  168  A    between atoms: _401  and  _402
REMARK  169  A    between atoms: _401  and  _404
REMARK  170  A    between atoms: _404  and  _405
REMARK  171  A    between atoms: _408  and  _410
REMARK  172  A    between atoms: _410  and  _411
REMARK  173  A    between atoms: _413  and  _415
REMARK  174  A    between atoms: _415  and  _416
REMARK  175  A    between atoms: _418  and  _420
REMARK  176  A    between atoms: _420  and  _421
REMARK  177  A    between atoms: _420  and  _423
REMARK  178  A    between atoms: _423  and  _424
REMARK  179  A    between atoms: _427  and  _429
REMARK  180  A    between atoms: _429  and  _430
REMARK  181  A    between atoms: _432  and  _434
REMARK  182  A    between atoms: _434  and  _435
REMARK  183  A    between atoms: _437  and  _439
REMARK  184  A    between atoms: _439  and  _440
REMARK  185  A    between atoms: _439  and  _442
REMARK  186  A    between atoms: _442  and  _443
REMARK  187  A    between atoms: _449  and  _451
REMARK  188  A    between atoms: _451  and  _452
REMARK  189  A    between atoms: _451  and  _454
REMARK  190  A    between atoms: _454  and  _455
REMARK  191  A    between atoms: _458  and  _460
REMARK  192  A    between atoms: _460  and  _461
REMARK  193  A    between atoms: _460  and  _463
REMARK  194  A    between atoms: _466  and  _468
REMARK  195  A    between atoms: _468  and  _469
REMARK  196  A    between atoms: _468  and  _471
REMARK  197  A    between atoms: _471  and  _472
REMARK  198  A    between atoms: _475  and  _477
REMARK  199  A    between atoms: _477  and  _478
REMARK  200  A    between atoms: _477  and  _480
REMARK  201  A    between atoms: _480  and  _481
REMARK  202  A    between atoms: _485  and  _486
REMARK  203  A    between atoms: _491  and  _493
REMARK  204  A    between atoms: _493  and  _494
REMARK  205  A    between atoms: _493  and  _496
REMARK  206  A    between atoms: _496  and  _497
REMARK  207  A    between atoms: _500  and  _502
REMARK  208  A    between atoms: _502  and  _503
REMARK  209  A    between atoms: _502  and  _505
REMARK  210  A    between atoms: _505  and  _506
REMARK  211  A    between atoms: _511  and  _513
REMARK  212  A    between atoms: _513  and  _514
REMARK  213  A    between atoms: _513  and  _516
REMARK  214  A    between atoms: _519  and  _521
REMARK  215  A    between atoms: _521  and  _522
REMARK  216  A    between atoms: _521  and  _524
REMARK  217  A    between atoms: _524  and  _525
REMARK  218  A    between atoms: _528  and  _530
REMARK  219  A    between atoms: _530  and  _531
REMARK  220  A    between atoms: _533  and  _535
REMARK  221  A    between atoms: _535  and  _536
REMARK  222  A    between atoms: _535  and  _538
REMARK  223  A    between atoms: _538  and  _539
REMARK  224  A    between atoms: _539  and  _540
REMARK  225  A    between atoms: _540  and  _541
REMARK  226  A    between atoms: _550  and  _552
REMARK  227  A    between atoms: _552  and  _553
REMARK  228  A    between atoms: _552  and  _555
REMARK  229  A    between atoms: _555  and  _556
REMARK                            x       y       z     vdW  Elec       q    Type
REMARK                         _______ _______ _______ _____ _____    ______ ____
ROOT
ATOM      1  O   HOH     1       2.977  -5.582  18.988  0.00  0.00    +0.000 OA
ENDROOT
TORSDOF 0
