REMARK  Name = ../refined-set-2016/5alb/5alb_pocket.pdb
REMARK  223 active torsions:
REMARK  status: ('A' for Active; 'I' for Inactive)
REMARK    1  A    between atoms: _1  and  _3
REMARK    2  A    between atoms: _3  and  _4
REMARK    3  A    between atoms: _3  and  _6
REMARK    4  A    between atoms: _6  and  _7
REMARK    5  A    between atoms: _12  and  _13
REMARK    6  A    between atoms: _15  and  _17
REMARK    7  A    between atoms: _17  and  _18
REMARK    8  A    between atoms: _17  and  _20
REMARK    9  A    between atoms: _20  and  _21
REMARK   10  A    between atoms: _23  and  _25
REMARK   11  A    between atoms: _25  and  _26
REMARK   12  A    between atoms: _25  and  _28
REMARK   13  A    between atoms: _28  and  _29
REMARK   14  A    between atoms: _32  and  _34
REMARK   15  A    between atoms: _34  and  _35
REMARK   16  A    between atoms: _34  and  _37
REMARK   17  A    between atoms: _37  and  _38
REMARK   18  A    between atoms: _43  and  _45
REMARK   19  A    between atoms: _45  and  _46
REMARK   20  A    between atoms: _45  and  _48
REMARK   21  A    between atoms: _48  and  _49
REMARK   22  A    between atoms: _59  and  _61
REMARK   23  A    between atoms: _61  and  _62
REMARK   24  A    between atoms: _61  and  _64
REMARK   25  A    between atoms: _67  and  _69
REMARK   26  A    between atoms: _69  and  _70
REMARK   27  A    between atoms: _69  and  _72
REMARK   28  A    between atoms: _72  and  _73
REMARK   29  A    between atoms: _76  and  _78
REMARK   30  A    between atoms: _78  and  _79
REMARK   31  A    between atoms: _78  and  _81
REMARK   32  A    between atoms: _81  and  _82
REMARK   33  A    between atoms: _82  and  _83
REMARK   34  A    between atoms: _86  and  _88
REMARK   35  A    between atoms: _88  and  _89
REMARK   36  A    between atoms: _88  and  _91
REMARK   37  A    between atoms: _91  and  _92
REMARK   38  A    between atoms: _102  and  _104
REMARK   39  A    between atoms: _104  and  _105
REMARK   40  A    between atoms: _104  and  _107
REMARK   41  A    between atoms: _107  and  _108
REMARK   42  A    between atoms: _108  and  _109
REMARK   43  A    between atoms: _111  and  _113
REMARK   44  A    between atoms: _113  and  _114
REMARK   45  A    between atoms: _116  and  _118
REMARK   46  A    between atoms: _118  and  _119
REMARK   47  A    between atoms: _121  and  _123
REMARK   48  A    between atoms: _123  and  _124
REMARK   49  A    between atoms: _123  and  _126
REMARK   50  A    between atoms: _126  and  _127
REMARK   51  A    between atoms: _130  and  _132
REMARK   52  A    between atoms: _132  and  _133
REMARK   53  A    between atoms: _132  and  _135
REMARK   54  A    between atoms: _135  and  _136
REMARK   55  A    between atoms: _140  and  _141
REMARK   56  A    between atoms: _146  and  _148
REMARK   57  A    between atoms: _148  and  _149
REMARK   58  A    between atoms: _148  and  _151
REMARK   59  A    between atoms: _151  and  _152
REMARK   60  A    between atoms: _158  and  _160
REMARK   61  A    between atoms: _160  and  _161
REMARK   62  A    between atoms: _163  and  _165
REMARK   63  A    between atoms: _165  and  _166
REMARK   64  A    between atoms: _165  and  _168
REMARK   65  A    between atoms: _168  and  _169
REMARK   66  A    between atoms: _172  and  _174
REMARK   67  A    between atoms: _174  and  _175
REMARK   68  A    between atoms: _174  and  _177
REMARK   69  A    between atoms: _177  and  _178
REMARK   70  A    between atoms: _181  and  _183
REMARK   71  A    between atoms: _183  and  _184
REMARK   72  A    between atoms: _183  and  _186
REMARK   73  A    between atoms: _186  and  _187
REMARK   74  A    between atoms: _189  and  _191
REMARK   75  A    between atoms: _191  and  _192
REMARK   76  A    between atoms: _191  and  _194
REMARK   77  A    between atoms: _194  and  _195
REMARK   78  A    between atoms: _197  and  _199
REMARK   79  A    between atoms: _199  and  _200
REMARK   80  A    between atoms: _203  and  _205
REMARK   81  A    between atoms: _205  and  _206
REMARK   82  A    between atoms: _205  and  _208
REMARK   83  A    between atoms: _208  and  _209
REMARK   84  A    between atoms: _209  and  _210
REMARK   85  A    between atoms: _210  and  _211
REMARK   86  A    between atoms: _220  and  _222
REMARK   87  A    between atoms: _222  and  _223
REMARK   88  A    between atoms: _225  and  _227
REMARK   89  A    between atoms: _227  and  _228
REMARK   90  A    between atoms: _227  and  _230
REMARK   91  A    between atoms: _230  and  _231
REMARK   92  A    between atoms: _233  and  _235
REMARK   93  A    between atoms: _235  and  _236
REMARK   94  A    between atoms: _235  and  _238
REMARK   95  A    between atoms: _238  and  _239
REMARK   96  A    between atoms: _245  and  _247
REMARK   97  A    between atoms: _247  and  _248
REMARK   98  A    between atoms: _247  and  _250
REMARK   99  A    between atoms: _250  and  _251
REMARK  100  A    between atoms: _256  and  _257
REMARK  101  A    between atoms: _259  and  _261
REMARK  102  A    between atoms: _261  and  _262
REMARK  103  A    between atoms: _261  and  _264
REMARK  104  A    between atoms: _264  and  _265
REMARK  105  A    between atoms: _275  and  _277
REMARK  106  A    between atoms: _277  and  _278
REMARK  107  A    between atoms: _281  and  _283
REMARK  108  A    between atoms: _283  and  _284
REMARK  109  A    between atoms: _283  and  _286
REMARK  110  A    between atoms: _286  and  _287
REMARK  111  A    between atoms: _293  and  _294
REMARK  112  A    between atoms: _300  and  _301
REMARK  113  A    between atoms: _306  and  _308
REMARK  114  A    between atoms: _308  and  _309
REMARK  115  A    between atoms: _308  and  _311
REMARK  116  A    between atoms: _311  and  _312
REMARK  117  A    between atoms: _317  and  _319
REMARK  118  A    between atoms: _319  and  _320
REMARK  119  A    between atoms: _319  and  _322
REMARK  120  A    between atoms: _322  and  _323
REMARK  121  A    between atoms: _326  and  _328
REMARK  122  A    between atoms: _328  and  _329
REMARK  123  A    between atoms: _332  and  _334
REMARK  124  A    between atoms: _334  and  _335
REMARK  125  A    between atoms: _334  and  _337
REMARK  126  A    between atoms: _337  and  _338
REMARK  127  A    between atoms: _341  and  _343
REMARK  128  A    between atoms: _343  and  _344
REMARK  129  A    between atoms: _347  and  _349
REMARK  130  A    between atoms: _349  and  _350
REMARK  131  A    between atoms: _349  and  _352
REMARK  132  A    between atoms: _352  and  _353
REMARK  133  A    between atoms: _363  and  _365
REMARK  134  A    between atoms: _365  and  _366
REMARK  135  A    between atoms: _365  and  _368
REMARK  136  A    between atoms: _368  and  _369
REMARK  137  A    between atoms: _374  and  _376
REMARK  138  A    between atoms: _376  and  _377
REMARK  139  A    between atoms: _376  and  _379
REMARK  140  A    between atoms: _379  and  _380
REMARK  141  A    between atoms: _385  and  _386
REMARK  142  A    between atoms: _388  and  _390
REMARK  143  A    between atoms: _390  and  _391
REMARK  144  A    between atoms: _390  and  _393
REMARK  145  A    between atoms: _396  and  _398
REMARK  146  A    between atoms: _398  and  _399
REMARK  147  A    between atoms: _398  and  _401
REMARK  148  A    between atoms: _401  and  _402
REMARK  149  A    between atoms: _404  and  _406
REMARK  150  A    between atoms: _406  and  _407
REMARK  151  A    between atoms: _406  and  _409
REMARK  152  A    between atoms: _409  and  _410
REMARK  153  A    between atoms: _420  and  _422
REMARK  154  A    between atoms: _422  and  _423
REMARK  155  A    between atoms: _422  and  _425
REMARK  156  A    between atoms: _425  and  _426
REMARK  157  A    between atoms: _431  and  _432
REMARK  158  A    between atoms: _434  and  _436
REMARK  159  A    between atoms: _436  and  _437
REMARK  160  A    between atoms: _436  and  _439
REMARK  161  A    between atoms: _439  and  _440
REMARK  162  A    between atoms: _443  and  _445
REMARK  163  A    between atoms: _445  and  _446
REMARK  164  A    between atoms: _445  and  _448
REMARK  165  A    between atoms: _448  and  _449
REMARK  166  A    between atoms: _452  and  _454
REMARK  167  A    between atoms: _454  and  _455
REMARK  168  A    between atoms: _454  and  _457
REMARK  169  A    between atoms: _457  and  _458
REMARK  170  A    between atoms: _461  and  _463
REMARK  171  A    between atoms: _463  and  _464
REMARK  172  A    between atoms: _463  and  _466
REMARK  173  A    between atoms: _466  and  _467
REMARK  174  A    between atoms: _472  and  _473
REMARK  175  A    between atoms: _475  and  _477
REMARK  176  A    between atoms: _477  and  _478
REMARK  177  A    between atoms: _477  and  _480
REMARK  178  A    between atoms: _482  and  _484
REMARK  179  A    between atoms: _484  and  _485
REMARK  180  A    between atoms: _487  and  _489
REMARK  181  A    between atoms: _489  and  _490
REMARK  182  A    between atoms: _489  and  _492
REMARK  183  A    between atoms: _492  and  _493
REMARK  184  A    between atoms: _496  and  _498
REMARK  185  A    between atoms: _498  and  _499
REMARK  186  A    between atoms: _498  and  _501
REMARK  187  A    between atoms: _501  and  _502
REMARK  188  A    between atoms: _512  and  _514
REMARK  189  A    between atoms: _514  and  _515
REMARK  190  A    between atoms: _514  and  _517
REMARK  191  A    between atoms: _517  and  _518
REMARK  192  A    between atoms: _521  and  _523
REMARK  193  A    between atoms: _523  and  _524
REMARK  194  A    between atoms: _523  and  _526
REMARK  195  A    between atoms: _526  and  _527
REMARK  196  A    between atoms: _532  and  _533
REMARK  197  A    between atoms: _535  and  _537
REMARK  198  A    between atoms: _537  and  _538
REMARK  199  A    between atoms: _537  and  _540
REMARK  200  A    between atoms: _540  and  _541
REMARK  201  A    between atoms: _544  and  _546
REMARK  202  A    between atoms: _546  and  _547
REMARK  203  A    between atoms: _546  and  _549
REMARK  204  A    between atoms: _549  and  _550
REMARK  205  A    between atoms: _550  and  _551
REMARK  206  A    between atoms: _551  and  _552
REMARK  207  A    between atoms: _561  and  _563
REMARK  208  A    between atoms: _563  and  _564
REMARK  209  A    between atoms: _567  and  _569
REMARK  210  A    between atoms: _569  and  _570
REMARK  211  A    between atoms: _569  and  _572
REMARK  212  A    between atoms: _575  and  _577
REMARK  213  A    between atoms: _577  and  _578
REMARK  214  A    between atoms: _580  and  _582
REMARK  215  A    between atoms: _582  and  _583
REMARK  216  A    between atoms: _582  and  _585
REMARK  217  A    between atoms: _585  and  _586
REMARK  218  A    between atoms: _589  and  _591
REMARK  219  A    between atoms: _591  and  _592
REMARK  220  A    between atoms: _591  and  _594
REMARK  221  A    between atoms: _594  and  _595
REMARK  222  A    between atoms: _601  and  _603
REMARK  223  A    between atoms: _603  and  _604
REMARK                            x       y       z     vdW  Elec       q    Type
REMARK                         _______ _______ _______ _____ _____    ______ ____
ROOT
ATOM      1  C   ILE A   3       4.707  12.635   2.529  0.00  0.00    +0.241 C 
ATOM      2  N   HIS A   4       5.750  13.038   3.232  0.00  0.00    -0.297 N 
ATOM      3  H   HIS A   4       6.338  13.818   2.874  0.00  0.00    +0.150 HD
ATOM      4  O   ILE A   3       3.993  11.714   2.894  0.00  0.00    -0.273 OA
ENDROOT
BRANCH   2   5
ATOM      5  CA  HIS A   4       6.095  12.397   4.521  0.00  0.00    +0.155 C 
BRANCH   5   6
ATOM      6  C   HIS A   4       6.198  13.368   5.675  0.00  0.00    +0.241 C 
ATOM      7  N   TRP A   5       5.773  12.926   6.857  0.00  0.00    -0.297 N 
ATOM      8  H   TRP A   5       5.311  11.996   6.909  0.00  0.00    +0.150 HD
ATOM      9  O   HIS A   4       6.617  14.498   5.497  0.00  0.00    -0.273 OA
BRANCH   7  10
ATOM     10  CA  TRP A   5       5.932  13.694   8.066  0.00  0.00    +0.153 C 
BRANCH  10  11
ATOM     11  C   TRP A   5       7.060  13.062   8.856  0.00  0.00    +0.241 C 
ATOM     12  N   VAL A   6       8.056  13.900   9.236  0.00  0.00    -0.298 N 
ATOM     13  H   VAL A   6       7.955  14.901   8.975  0.00  0.00    +0.150 HD
ATOM     14  O   TRP A   5       7.087  11.837   9.024  0.00  0.00    -0.273 OA
BRANCH  12  15
ATOM     15  CA  VAL A   6       9.264  13.526   9.982  0.00  0.00    +0.137 C 
BRANCH  15  16
ATOM     16  CB  VAL A   6      10.538  13.456   9.073  0.00  0.00    +0.026 C 
ATOM     17  CG2 VAL A   6      11.814  13.197   9.890  0.00  0.00    +0.002 C 
ATOM     18  CG1 VAL A   6      10.388  12.395   7.987  0.00  0.00    +0.002 C 
ENDBRANCH  15  16
BRANCH  15  19
ATOM     19  C   VAL A   6       9.434  14.530  11.126  0.00  0.00    +0.227 C 
ATOM     20  O   VAL A   6       9.409  15.741  10.914  0.00  0.00    -0.286 OA
ENDBRANCH  15  19
ENDBRANCH  12  15
ENDBRANCH  10  11
BRANCH  10  21
ATOM     21  CB  TRP A   5       4.612  13.803   8.842  0.00  0.00    +0.057 C 
BRANCH  21  22
ATOM     22  CG  TRP A   5       3.615  14.655   8.107  0.00  0.00    -0.002 A 
ATOM     23  CD2 TRP A   5       3.562  16.085   8.102  0.00  0.00    +0.013 A 
ATOM     24  CE3 TRP A   5       4.235  17.084   8.823  0.00  0.00    +0.001 A 
ATOM     25  CZ3 TRP A   5       3.870  18.403   8.632  0.00  0.00    +0.000 A 
ATOM     26  CH2 TRP A   5       2.819  18.750   7.770  0.00  0.00    +0.001 A 
ATOM     27  CZ2 TRP A   5       2.112  17.794   7.081  0.00  0.00    +0.017 A 
ATOM     28  CE2 TRP A   5       2.503  16.463   7.243  0.00  0.00    +0.056 A 
ATOM     29  NE1 TRP A   5       2.000  15.317   6.687  0.00  0.00    -0.352 N 
ATOM     30  HE1 TRP A   5       1.229  15.270   5.990  0.00  0.00    +0.166 HD
ATOM     31  CD1 TRP A   5       2.683  14.234   7.202  0.00  0.00    +0.068 A 
ENDBRANCH  21  22
ENDBRANCH  10  21
ENDBRANCH   7  10
ENDBRANCH   5   6
BRANCH   5  32
ATOM     32  CB  HIS A   4       7.390  11.579   4.420  0.00  0.00    +0.076 C 
BRANCH  32  33
ATOM     33  CG  HIS A   4       7.292  10.394   3.504  0.00  0.00    +0.082 A 
ATOM     34  CD2 HIS A   4       7.284   9.076   3.796  0.00  0.00    +0.115 A 
ATOM     35  NE2 HIS A   4       7.154   8.408   2.609  0.00  0.00    -0.221 NA
ATOM     36  CE1 HIS A   4       7.124   9.319   1.644  0.00  0.00    +0.199 A 
ATOM     37  ND1 HIS A   4       7.193  10.546   2.130  0.00  0.00    -0.227 NA
ENDBRANCH  32  33
ENDBRANCH   5  32
ENDBRANCH   2   5
BRANCH   1  38
ATOM     38  CA  ILE A   3       4.411  13.322   1.194  0.00  0.00    +0.149 C 
BRANCH  38  40
ATOM     39  C   SER A   2       4.973  12.170  -0.922  0.00  0.00    +0.243 C 
ATOM     40  N   ILE A   3       4.254  12.258   0.206  0.00  0.00    -0.297 N 
ATOM     41  H   ILE A   3       3.541  11.524   0.389  0.00  0.00    +0.150 HD
ATOM     42  O   SER A   2       5.769  13.044  -1.281  0.00  0.00    -0.273 OA
BRANCH  39  43
ATOM     43  CA  SER A   2       4.708  10.940  -1.819  0.00  0.00    +0.178 C 
BRANCH  43  45
ATOM     44  C   TYR A   1       4.235  11.838  -4.058  0.00  0.00    +0.239 C 
ATOM     45  N   SER A   2       5.076  11.243  -3.200  0.00  0.00    -0.295 N 
ATOM     46  H   SER A   2       6.028  10.987  -3.531  0.00  0.00    +0.150 HD
ATOM     47  O   TYR A   1       3.082  12.152  -3.759  0.00  0.00    -0.274 OA
BRANCH  44  48
ATOM     48  CA  TYR A   1       4.789  12.162  -5.431  0.00  0.00    +0.149 C 
BRANCH  48  49
ATOM     49  N   TYR A   1       3.688  12.352  -6.363  0.00  0.00    -0.238 NA
ATOM     50  H   TYR A   1       3.287  13.307  -6.454  0.00  0.00    +0.142 HD
ENDBRANCH  48  49
BRANCH  48  51
ATOM     51  CB  TYR A   1       5.659  13.444  -5.323  0.00  0.00    +0.053 C 
BRANCH  51  52
ATOM     52  CG  TYR A   1       6.256  13.942  -6.618  0.00  0.00    -0.020 A 
ATOM     53  CD2 TYR A   1       7.347  13.302  -7.197  0.00  0.00    -0.001 A 
ATOM     54  CE2 TYR A   1       7.905  13.759  -8.394  0.00  0.00    +0.036 A 
ATOM     55  CZ  TYR A   1       7.380  14.885  -9.016  0.00  0.00    +0.134 A 
ATOM     56  CE1 TYR A   1       6.317  15.560  -8.435  0.00  0.00    +0.036 A 
ATOM     57  CD1 TYR A   1       5.751  15.075  -7.252  0.00  0.00    -0.001 A 
BRANCH  55  58
ATOM     58  OH  TYR A   1       7.946  15.361 -10.178  0.00  0.00    -0.506 OA
ATOM     59  HH  TYR A   1       8.686  14.763 -10.452  0.00  0.00    +0.292 HD
ENDBRANCH  55  58
ENDBRANCH  51  52
ENDBRANCH  48  51
ENDBRANCH  44  48
ENDBRANCH  43  45
BRANCH  43  60
ATOM     60  CB  SER A   2       5.493   9.730  -1.319  0.00  0.00    +0.166 C 
BRANCH  60  61
ATOM     61  OG  SER A   2       6.889   9.956  -1.417  0.00  0.00    -0.380 OA
ATOM     62  H   SER A   2       7.129  10.123  -2.363  0.00  0.00    +0.211 HD
ENDBRANCH  60  61
ENDBRANCH  43  60
ENDBRANCH  39  43
ENDBRANCH  38  40
BRANCH  38  63
ATOM     63  CB  ILE A   3       3.172  14.275   1.259  0.00  0.00    +0.027 C 
ATOM     64  CG2 ILE A   3       3.164  15.101   2.583  0.00  0.00    +0.002 C 
BRANCH  63  65
ATOM     65  CG1 ILE A   3       3.071  15.205   0.020  0.00  0.00    +0.002 C 
ATOM     66  CD1 ILE A   3       4.197  16.248  -0.152  0.00  0.00    +0.000 C 
ENDBRANCH  63  65
ENDBRANCH  38  63
ENDBRANCH   1  38
TORSDOF 24
REMARK  Name = ../refined-set-2016/5alb/5alb_pocket.pdb
REMARK  223 active torsions:
REMARK  status: ('A' for Active; 'I' for Inactive)
REMARK    1  A    between atoms: _1  and  _3
REMARK    2  A    between atoms: _3  and  _4
REMARK    3  A    between atoms: _3  and  _6
REMARK    4  A    between atoms: _6  and  _7
REMARK    5  A    between atoms: _12  and  _13
REMARK    6  A    between atoms: _15  and  _17
REMARK    7  A    between atoms: _17  and  _18
REMARK    8  A    between atoms: _17  and  _20
REMARK    9  A    between atoms: _20  and  _21
REMARK   10  A    between atoms: _23  and  _25
REMARK   11  A    between atoms: _25  and  _26
REMARK   12  A    between atoms: _25  and  _28
REMARK   13  A    between atoms: _28  and  _29
REMARK   14  A    between atoms: _32  and  _34
REMARK   15  A    between atoms: _34  and  _35
REMARK   16  A    between atoms: _34  and  _37
REMARK   17  A    between atoms: _37  and  _38
REMARK   18  A    between atoms: _43  and  _45
REMARK   19  A    between atoms: _45  and  _46
REMARK   20  A    between atoms: _45  and  _48
REMARK   21  A    between atoms: _48  and  _49
REMARK   22  A    between atoms: _59  and  _61
REMARK   23  A    between atoms: _61  and  _62
REMARK   24  A    between atoms: _61  and  _64
REMARK   25  A    between atoms: _67  and  _69
REMARK   26  A    between atoms: _69  and  _70
REMARK   27  A    between atoms: _69  and  _72
REMARK   28  A    between atoms: _72  and  _73
REMARK   29  A    between atoms: _76  and  _78
REMARK   30  A    between atoms: _78  and  _79
REMARK   31  A    between atoms: _78  and  _81
REMARK   32  A    between atoms: _81  and  _82
REMARK   33  A    between atoms: _82  and  _83
REMARK   34  A    between atoms: _86  and  _88
REMARK   35  A    between atoms: _88  and  _89
REMARK   36  A    between atoms: _88  and  _91
REMARK   37  A    between atoms: _91  and  _92
REMARK   38  A    between atoms: _102  and  _104
REMARK   39  A    between atoms: _104  and  _105
REMARK   40  A    between atoms: _104  and  _107
REMARK   41  A    between atoms: _107  and  _108
REMARK   42  A    between atoms: _108  and  _109
REMARK   43  A    between atoms: _111  and  _113
REMARK   44  A    between atoms: _113  and  _114
REMARK   45  A    between atoms: _116  and  _118
REMARK   46  A    between atoms: _118  and  _119
REMARK   47  A    between atoms: _121  and  _123
REMARK   48  A    between atoms: _123  and  _124
REMARK   49  A    between atoms: _123  and  _126
REMARK   50  A    between atoms: _126  and  _127
REMARK   51  A    between atoms: _130  and  _132
REMARK   52  A    between atoms: _132  and  _133
REMARK   53  A    between atoms: _132  and  _135
REMARK   54  A    between atoms: _135  and  _136
REMARK   55  A    between atoms: _140  and  _141
REMARK   56  A    between atoms: _146  and  _148
REMARK   57  A    between atoms: _148  and  _149
REMARK   58  A    between atoms: _148  and  _151
REMARK   59  A    between atoms: _151  and  _152
REMARK   60  A    between atoms: _158  and  _160
REMARK   61  A    between atoms: _160  and  _161
REMARK   62  A    between atoms: _163  and  _165
REMARK   63  A    between atoms: _165  and  _166
REMARK   64  A    between atoms: _165  and  _168
REMARK   65  A    between atoms: _168  and  _169
REMARK   66  A    between atoms: _172  and  _174
REMARK   67  A    between atoms: _174  and  _175
REMARK   68  A    between atoms: _174  and  _177
REMARK   69  A    between atoms: _177  and  _178
REMARK   70  A    between atoms: _181  and  _183
REMARK   71  A    between atoms: _183  and  _184
REMARK   72  A    between atoms: _183  and  _186
REMARK   73  A    between atoms: _186  and  _187
REMARK   74  A    between atoms: _189  and  _191
REMARK   75  A    between atoms: _191  and  _192
REMARK   76  A    between atoms: _191  and  _194
REMARK   77  A    between atoms: _194  and  _195
REMARK   78  A    between atoms: _197  and  _199
REMARK   79  A    between atoms: _199  and  _200
REMARK   80  A    between atoms: _203  and  _205
REMARK   81  A    between atoms: _205  and  _206
REMARK   82  A    between atoms: _205  and  _208
REMARK   83  A    between atoms: _208  and  _209
REMARK   84  A    between atoms: _209  and  _210
REMARK   85  A    between atoms: _210  and  _211
REMARK   86  A    between atoms: _220  and  _222
REMARK   87  A    between atoms: _222  and  _223
REMARK   88  A    between atoms: _225  and  _227
REMARK   89  A    between atoms: _227  and  _228
REMARK   90  A    between atoms: _227  and  _230
REMARK   91  A    between atoms: _230  and  _231
REMARK   92  A    between atoms: _233  and  _235
REMARK   93  A    between atoms: _235  and  _236
REMARK   94  A    between atoms: _235  and  _238
REMARK   95  A    between atoms: _238  and  _239
REMARK   96  A    between atoms: _245  and  _247
REMARK   97  A    between atoms: _247  and  _248
REMARK   98  A    between atoms: _247  and  _250
REMARK   99  A    between atoms: _250  and  _251
REMARK  100  A    between atoms: _256  and  _257
REMARK  101  A    between atoms: _259  and  _261
REMARK  102  A    between atoms: _261  and  _262
REMARK  103  A    between atoms: _261  and  _264
REMARK  104  A    between atoms: _264  and  _265
REMARK  105  A    between atoms: _275  and  _277
REMARK  106  A    between atoms: _277  and  _278
REMARK  107  A    between atoms: _281  and  _283
REMARK  108  A    between atoms: _283  and  _284
REMARK  109  A    between atoms: _283  and  _286
REMARK  110  A    between atoms: _286  and  _287
REMARK  111  A    between atoms: _293  and  _294
REMARK  112  A    between atoms: _300  and  _301
REMARK  113  A    between atoms: _306  and  _308
REMARK  114  A    between atoms: _308  and  _309
REMARK  115  A    between atoms: _308  and  _311
REMARK  116  A    between atoms: _311  and  _312
REMARK  117  A    between atoms: _317  and  _319
REMARK  118  A    between atoms: _319  and  _320
REMARK  119  A    between atoms: _319  and  _322
REMARK  120  A    between atoms: _322  and  _323
REMARK  121  A    between atoms: _326  and  _328
REMARK  122  A    between atoms: _328  and  _329
REMARK  123  A    between atoms: _332  and  _334
REMARK  124  A    between atoms: _334  and  _335
REMARK  125  A    between atoms: _334  and  _337
REMARK  126  A    between atoms: _337  and  _338
REMARK  127  A    between atoms: _341  and  _343
REMARK  128  A    between atoms: _343  and  _344
REMARK  129  A    between atoms: _347  and  _349
REMARK  130  A    between atoms: _349  and  _350
REMARK  131  A    between atoms: _349  and  _352
REMARK  132  A    between atoms: _352  and  _353
REMARK  133  A    between atoms: _363  and  _365
REMARK  134  A    between atoms: _365  and  _366
REMARK  135  A    between atoms: _365  and  _368
REMARK  136  A    between atoms: _368  and  _369
REMARK  137  A    between atoms: _374  and  _376
REMARK  138  A    between atoms: _376  and  _377
REMARK  139  A    between atoms: _376  and  _379
REMARK  140  A    between atoms: _379  and  _380
REMARK  141  A    between atoms: _385  and  _386
REMARK  142  A    between atoms: _388  and  _390
REMARK  143  A    between atoms: _390  and  _391
REMARK  144  A    between atoms: _390  and  _393
REMARK  145  A    between atoms: _396  and  _398
REMARK  146  A    between atoms: _398  and  _399
REMARK  147  A    between atoms: _398  and  _401
REMARK  148  A    between atoms: _401  and  _402
REMARK  149  A    between atoms: _404  and  _406
REMARK  150  A    between atoms: _406  and  _407
REMARK  151  A    between atoms: _406  and  _409
REMARK  152  A    between atoms: _409  and  _410
REMARK  153  A    between atoms: _420  and  _422
REMARK  154  A    between atoms: _422  and  _423
REMARK  155  A    between atoms: _422  and  _425
REMARK  156  A    between atoms: _425  and  _426
REMARK  157  A    between atoms: _431  and  _432
REMARK  158  A    between atoms: _434  and  _436
REMARK  159  A    between atoms: _436  and  _437
REMARK  160  A    between atoms: _436  and  _439
REMARK  161  A    between atoms: _439  and  _440
REMARK  162  A    between atoms: _443  and  _445
REMARK  163  A    between atoms: _445  and  _446
REMARK  164  A    between atoms: _445  and  _448
REMARK  165  A    between atoms: _448  and  _449
REMARK  166  A    between atoms: _452  and  _454
REMARK  167  A    between atoms: _454  and  _455
REMARK  168  A    between atoms: _454  and  _457
REMARK  169  A    between atoms: _457  and  _458
REMARK  170  A    between atoms: _461  and  _463
REMARK  171  A    between atoms: _463  and  _464
REMARK  172  A    between atoms: _463  and  _466
REMARK  173  A    between atoms: _466  and  _467
REMARK  174  A    between atoms: _472  and  _473
REMARK  175  A    between atoms: _475  and  _477
REMARK  176  A    between atoms: _477  and  _478
REMARK  177  A    between atoms: _477  and  _480
REMARK  178  A    between atoms: _482  and  _484
REMARK  179  A    between atoms: _484  and  _485
REMARK  180  A    between atoms: _487  and  _489
REMARK  181  A    between atoms: _489  and  _490
REMARK  182  A    between atoms: _489  and  _492
REMARK  183  A    between atoms: _492  and  _493
REMARK  184  A    between atoms: _496  and  _498
REMARK  185  A    between atoms: _498  and  _499
REMARK  186  A    between atoms: _498  and  _501
REMARK  187  A    between atoms: _501  and  _502
REMARK  188  A    between atoms: _512  and  _514
REMARK  189  A    between atoms: _514  and  _515
REMARK  190  A    between atoms: _514  and  _517
REMARK  191  A    between atoms: _517  and  _518
REMARK  192  A    between atoms: _521  and  _523
REMARK  193  A    between atoms: _523  and  _524
REMARK  194  A    between atoms: _523  and  _526
REMARK  195  A    between atoms: _526  and  _527
REMARK  196  A    between atoms: _532  and  _533
REMARK  197  A    between atoms: _535  and  _537
REMARK  198  A    between atoms: _537  and  _538
REMARK  199  A    between atoms: _537  and  _540
REMARK  200  A    between atoms: _540  and  _541
REMARK  201  A    between atoms: _544  and  _546
REMARK  202  A    between atoms: _546  and  _547
REMARK  203  A    between atoms: _546  and  _549
REMARK  204  A    between atoms: _549  and  _550
REMARK  205  A    between atoms: _550  and  _551
REMARK  206  A    between atoms: _551  and  _552
REMARK  207  A    between atoms: _561  and  _563
REMARK  208  A    between atoms: _563  and  _564
REMARK  209  A    between atoms: _567  and  _569
REMARK  210  A    between atoms: _569  and  _570
REMARK  211  A    between atoms: _569  and  _572
REMARK  212  A    between atoms: _575  and  _577
REMARK  213  A    between atoms: _577  and  _578
REMARK  214  A    between atoms: _580  and  _582
REMARK  215  A    between atoms: _582  and  _583
REMARK  216  A    between atoms: _582  and  _585
REMARK  217  A    between atoms: _585  and  _586
REMARK  218  A    between atoms: _589  and  _591
REMARK  219  A    between atoms: _591  and  _592
REMARK  220  A    between atoms: _591  and  _594
REMARK  221  A    between atoms: _594  and  _595
REMARK  222  A    between atoms: _601  and  _603
REMARK  223  A    between atoms: _603  and  _604
REMARK                            x       y       z     vdW  Elec       q    Type
REMARK                         _______ _______ _______ _____ _____    ______ ____
ROOT
ATOM      1  CA  MET A   4       5.866   9.491  11.423  0.00  0.00    +0.149 C 
ENDROOT
BRANCH   1   2
ATOM      2  C   MET A   4       4.856   8.793  10.545  0.00  0.00    +0.241 C 
ATOM      3  O   MET A   4       4.096   7.967  11.029  0.00  0.00    -0.273 OA
ATOM      4  N   GLY A   5       4.813   9.184   9.290  0.00  0.00    -0.295 N 
ATOM      5  H   GLY A   5       5.510   9.885   8.968  0.00  0.00    +0.150 HD
BRANCH   4   6
ATOM      6  CA  GLY A   5       3.845   8.689   8.333  0.00  0.00    +0.176 C 
BRANCH   6   7
ATOM      7  C   GLY A   5       3.988   9.329   6.981  0.00  0.00    +0.243 C 
ATOM      8  O   GLY A   5       4.642  10.363   6.849  0.00  0.00    -0.273 OA
ATOM      9  N   GLY A   6       3.413   8.669   5.978  0.00  0.00    -0.295 N 
ATOM     10  H   GLY A   6       2.892   7.798   6.205  0.00  0.00    +0.150 HD
BRANCH   9  11
ATOM     11  CA  GLY A   6       3.465   9.087   4.584  0.00  0.00    +0.176 C 
BRANCH  11  12
ATOM     12  C   GLY A   6       2.158   8.851   3.866  0.00  0.00    +0.243 C 
ATOM     13  O   GLY A   6       1.362   8.028   4.299  0.00  0.00    -0.273 OA
ATOM     14  N   ILE A   7       1.929   9.601   2.784  0.00  0.00    -0.297 N 
ATOM     15  H   ILE A   7       2.672  10.283   2.529  0.00  0.00    +0.150 HD
BRANCH  14  16
ATOM     16  CA  ILE A   7       0.750   9.570   1.919  0.00  0.00    +0.149 C 
BRANCH  16  17
ATOM     17  C   ILE A   7       1.149   9.807   0.454  0.00  0.00    +0.241 C 
ATOM     18  O   ILE A   7       2.053  10.578   0.195  0.00  0.00    -0.273 OA
ATOM     19  N   ILE A   8       0.430   9.171  -0.491  0.00  0.00    -0.297 N 
ATOM     20  H   ILE A   8      -0.231   8.423  -0.199  0.00  0.00    +0.150 HD
BRANCH  19  21
ATOM     21  CA  ILE A   8       0.543   9.488  -1.892  0.00  0.00    +0.149 C 
BRANCH  21  22
ATOM     22  C   ILE A   8      -0.769  10.213  -2.160  0.00  0.00    +0.244 C 
ATOM     23  N   PRO A   9      -0.757  11.575  -2.086  0.00  0.00    -0.273 N 
ATOM     24  CD  PRO A   9       0.399  12.462  -1.830  0.00  0.00    +0.094 C 
ATOM     25  CG  PRO A   9      -0.208  13.822  -1.692  0.00  0.00    +0.024 C 
ATOM     26  CB  PRO A   9      -1.522  13.818  -2.370  0.00  0.00    +0.030 C 
ATOM     27  CA  PRO A   9      -2.001  12.354  -2.316  0.00  0.00    +0.140 C 
ATOM     28  O   ILE A   8      -1.798   9.553  -2.343  0.00  0.00    -0.273 OA
BRANCH  27  29
ATOM     29  C   PRO A   9      -2.816  11.980  -3.564  0.00  0.00    +0.227 C 
ATOM     30  O   PRO A   9      -4.051  11.976  -3.498  0.00  0.00    -0.286 OA
ENDBRANCH  27  29
ENDBRANCH  21  22
BRANCH  21  31
ATOM     31  CB  ILE A   8       0.844   8.313  -2.859  0.00  0.00    +0.027 C 
ATOM     32  CG2 ILE A   8       0.793   8.810  -4.304  0.00  0.00    +0.002 C 
BRANCH  31  33
ATOM     33  CG1 ILE A   8       2.218   7.691  -2.534  0.00  0.00    +0.002 C 
ATOM     34  CD1 ILE A   8       2.413   6.219  -2.921  0.00  0.00    +0.000 C 
ENDBRANCH  31  33
ENDBRANCH  21  31
ENDBRANCH  19  21
ENDBRANCH  16  17
BRANCH  16  35
ATOM     35  CB  ILE A   7      -0.331  10.628   2.355  0.00  0.00    +0.027 C 
ATOM     36  CG2 ILE A   7       0.227  12.077   2.367  0.00  0.00    +0.002 C 
BRANCH  35  37
ATOM     37  CG1 ILE A   7      -1.641  10.526   1.500  0.00  0.00    +0.002 C 
ATOM     38  CD1 ILE A   7      -2.852  11.043   2.134  0.00  0.00    +0.000 C 
ENDBRANCH  35  37
ENDBRANCH  16  35
ENDBRANCH  14  16
ENDBRANCH  11  12
ENDBRANCH   9  11
ENDBRANCH   6   7
ENDBRANCH   4   6
ENDBRANCH   1   2
BRANCH   1  41
ATOM     39  C   TRP A   3       8.212   8.878  11.168  0.00  0.00    +0.241 C 
ATOM     40  O   TRP A   3       8.116   7.987  12.024  0.00  0.00    -0.273 OA
ATOM     41  N   MET A   4       7.179   9.641  10.790  0.00  0.00    -0.297 N 
ATOM     42  H   MET A   4       7.310  10.348  10.039  0.00  0.00    +0.150 HD
BRANCH  39  43
ATOM     43  CA  TRP A   3       9.527   9.120  10.455  0.00  0.00    +0.153 C 
BRANCH  43  46
ATOM     44  C   GLU A   2      10.720  10.266  12.276  0.00  0.00    +0.241 C 
ATOM     45  O   GLU A   2       9.928  11.195  12.320  0.00  0.00    -0.273 OA
ATOM     46  N   TRP A   3      10.610   9.256  11.424  0.00  0.00    -0.297 N 
ATOM     47  H   TRP A   3      11.340   8.516  11.448  0.00  0.00    +0.150 HD
BRANCH  44  48
ATOM     48  CA  GLU A   2      11.854  10.205  13.281  0.00  0.00    +0.149 C 
BRANCH  48  51
ATOM     49  C   LEU A   1      14.102  11.149  13.062  0.00  0.00    +0.238 C 
ATOM     50  O   LEU A   1      14.653  10.069  13.270  0.00  0.00    -0.274 OA
ATOM     51  N   GLU A   2      12.777  11.305  13.053  0.00  0.00    -0.297 N 
ATOM     52  H   GLU A   2      12.388  12.253  12.875  0.00  0.00    +0.150 HD
BRANCH  49  53
ATOM     53  CA  LEU A   1      14.931  12.398  12.818  0.00  0.00    +0.145 C 
BRANCH  53  54
ATOM     54  N   LEU A   1      16.105  12.323  13.684  0.00  0.00    -0.238 NA
ATOM     55  H   LEU A   1      16.981  11.930  13.284  0.00  0.00    +0.142 HD
ENDBRANCH  53  54
BRANCH  53  56
ATOM     56  CB  LEU A   1      15.319  12.450  11.329  0.00  0.00    +0.026 C 
BRANCH  56  57
ATOM     57  CG  LEU A   1      16.255  13.542  10.886  0.00  0.00    +0.002 C 
ATOM     58  CD2 LEU A   1      15.640  14.934  11.060  0.00  0.00    +0.000 C 
ATOM     59  CD1 LEU A   1      16.650  13.310   9.468  0.00  0.00    +0.000 C 
ENDBRANCH  56  57
ENDBRANCH  53  56
ENDBRANCH  49  53
ENDBRANCH  48  51
BRANCH  48  60
ATOM     60  CB  GLU A   2      11.305  10.274  14.729  0.00  0.00    +0.041 C 
BRANCH  60  61
ATOM     61  CG  GLU A   2      10.557   9.016  15.156  0.00  0.00    +0.116 C 
BRANCH  61  62
ATOM     62  CD  GLU A   2       9.963   8.992  16.549  0.00  0.00    +0.365 C 
ATOM     63  OE2 GLU A   2      10.025  10.020  17.261  0.00  0.00    -0.246 OA
ATOM     64  OE1 GLU A   2       9.401   7.937  16.917  0.00  0.00    -0.246 OA
ENDBRANCH  61  62
ENDBRANCH  60  61
ENDBRANCH  48  60
ENDBRANCH  44  48
ENDBRANCH  43  46
BRANCH  43  65
ATOM     65  CB  TRP A   3       9.799   7.939   9.506  0.00  0.00    +0.057 C 
BRANCH  65  66
ATOM     66  CG  TRP A   3       8.774   7.838   8.406  0.00  0.00    -0.002 A 
ATOM     67  CD2 TRP A   3       7.646   6.943   8.347  0.00  0.00    +0.013 A 
ATOM     68  CE3 TRP A   3       7.152   5.933   9.192  0.00  0.00    +0.001 A 
ATOM     69  CZ3 TRP A   3       5.993   5.250   8.823  0.00  0.00    +0.000 A 
ATOM     70  CH2 TRP A   3       5.340   5.529   7.619  0.00  0.00    +0.001 A 
ATOM     71  CZ2 TRP A   3       5.804   6.508   6.759  0.00  0.00    +0.017 A 
ATOM     72  CE2 TRP A   3       6.953   7.223   7.150  0.00  0.00    +0.056 A 
ATOM     73  NE1 TRP A   3       7.629   8.232   6.519  0.00  0.00    -0.352 N 
ATOM     74  HE1 TRP A   3       7.363   8.655   5.607  0.00  0.00    +0.166 HD
ATOM     75  CD1 TRP A   3       8.713   8.599   7.278  0.00  0.00    +0.068 A 
ENDBRANCH  65  66
ENDBRANCH  43  65
ENDBRANCH  39  43
ENDBRANCH   1  41
BRANCH   1  76
ATOM     76  CB  MET A   4       5.309  10.854  11.843  0.00  0.00    +0.041 C 
BRANCH  76  77
ATOM     77  CG  MET A   4       6.154  11.523  12.880  0.00  0.00    +0.060 C 
BRANCH  77  78
ATOM     78  SD  MET A   4       5.430  13.046  13.456  0.00  0.00    -0.139 S 
ATOM     79  CE  MET A   4       5.916  14.078  12.256  0.00  0.00    +0.069 C 
ENDBRANCH  77  78
ENDBRANCH  76  77
ENDBRANCH   1  76
TORSDOF 31
REMARK  Name = ../refined-set-2016/5alb/5alb_pocket.pdb
REMARK  223 active torsions:
REMARK  status: ('A' for Active; 'I' for Inactive)
REMARK    1  A    between atoms: _1  and  _3
REMARK    2  A    between atoms: _3  and  _4
REMARK    3  A    between atoms: _3  and  _6
REMARK    4  A    between atoms: _6  and  _7
REMARK    5  A    between atoms: _12  and  _13
REMARK    6  A    between atoms: _15  and  _17
REMARK    7  A    between atoms: _17  and  _18
REMARK    8  A    between atoms: _17  and  _20
REMARK    9  A    between atoms: _20  and  _21
REMARK   10  A    between atoms: _23  and  _25
REMARK   11  A    between atoms: _25  and  _26
REMARK   12  A    between atoms: _25  and  _28
REMARK   13  A    between atoms: _28  and  _29
REMARK   14  A    between atoms: _32  and  _34
REMARK   15  A    between atoms: _34  and  _35
REMARK   16  A    between atoms: _34  and  _37
REMARK   17  A    between atoms: _37  and  _38
REMARK   18  A    between atoms: _43  and  _45
REMARK   19  A    between atoms: _45  and  _46
REMARK   20  A    between atoms: _45  and  _48
REMARK   21  A    between atoms: _48  and  _49
REMARK   22  A    between atoms: _59  and  _61
REMARK   23  A    between atoms: _61  and  _62
REMARK   24  A    between atoms: _61  and  _64
REMARK   25  A    between atoms: _67  and  _69
REMARK   26  A    between atoms: _69  and  _70
REMARK   27  A    between atoms: _69  and  _72
REMARK   28  A    between atoms: _72  and  _73
REMARK   29  A    between atoms: _76  and  _78
REMARK   30  A    between atoms: _78  and  _79
REMARK   31  A    between atoms: _78  and  _81
REMARK   32  A    between atoms: _81  and  _82
REMARK   33  A    between atoms: _82  and  _83
REMARK   34  A    between atoms: _86  and  _88
REMARK   35  A    between atoms: _88  and  _89
REMARK   36  A    between atoms: _88  and  _91
REMARK   37  A    between atoms: _91  and  _92
REMARK   38  A    between atoms: _102  and  _104
REMARK   39  A    between atoms: _104  and  _105
REMARK   40  A    between atoms: _104  and  _107
REMARK   41  A    between atoms: _107  and  _108
REMARK   42  A    between atoms: _108  and  _109
REMARK   43  A    between atoms: _111  and  _113
REMARK   44  A    between atoms: _113  and  _114
REMARK   45  A    between atoms: _116  and  _118
REMARK   46  A    between atoms: _118  and  _119
REMARK   47  A    between atoms: _121  and  _123
REMARK   48  A    between atoms: _123  and  _124
REMARK   49  A    between atoms: _123  and  _126
REMARK   50  A    between atoms: _126  and  _127
REMARK   51  A    between atoms: _130  and  _132
REMARK   52  A    between atoms: _132  and  _133
REMARK   53  A    between atoms: _132  and  _135
REMARK   54  A    between atoms: _135  and  _136
REMARK   55  A    between atoms: _140  and  _141
REMARK   56  A    between atoms: _146  and  _148
REMARK   57  A    between atoms: _148  and  _149
REMARK   58  A    between atoms: _148  and  _151
REMARK   59  A    between atoms: _151  and  _152
REMARK   60  A    between atoms: _158  and  _160
REMARK   61  A    between atoms: _160  and  _161
REMARK   62  A    between atoms: _163  and  _165
REMARK   63  A    between atoms: _165  and  _166
REMARK   64  A    between atoms: _165  and  _168
REMARK   65  A    between atoms: _168  and  _169
REMARK   66  A    between atoms: _172  and  _174
REMARK   67  A    between atoms: _174  and  _175
REMARK   68  A    between atoms: _174  and  _177
REMARK   69  A    between atoms: _177  and  _178
REMARK   70  A    between atoms: _181  and  _183
REMARK   71  A    between atoms: _183  and  _184
REMARK   72  A    between atoms: _183  and  _186
REMARK   73  A    between atoms: _186  and  _187
REMARK   74  A    between atoms: _189  and  _191
REMARK   75  A    between atoms: _191  and  _192
REMARK   76  A    between atoms: _191  and  _194
REMARK   77  A    between atoms: _194  and  _195
REMARK   78  A    between atoms: _197  and  _199
REMARK   79  A    between atoms: _199  and  _200
REMARK   80  A    between atoms: _203  and  _205
REMARK   81  A    between atoms: _205  and  _206
REMARK   82  A    between atoms: _205  and  _208
REMARK   83  A    between atoms: _208  and  _209
REMARK   84  A    between atoms: _209  and  _210
REMARK   85  A    between atoms: _210  and  _211
REMARK   86  A    between atoms: _220  and  _222
REMARK   87  A    between atoms: _222  and  _223
REMARK   88  A    between atoms: _225  and  _227
REMARK   89  A    between atoms: _227  and  _228
REMARK   90  A    between atoms: _227  and  _230
REMARK   91  A    between atoms: _230  and  _231
REMARK   92  A    between atoms: _233  and  _235
REMARK   93  A    between atoms: _235  and  _236
REMARK   94  A    between atoms: _235  and  _238
REMARK   95  A    between atoms: _238  and  _239
REMARK   96  A    between atoms: _245  and  _247
REMARK   97  A    between atoms: _247  and  _248
REMARK   98  A    between atoms: _247  and  _250
REMARK   99  A    between atoms: _250  and  _251
REMARK  100  A    between atoms: _256  and  _257
REMARK  101  A    between atoms: _259  and  _261
REMARK  102  A    between atoms: _261  and  _262
REMARK  103  A    between atoms: _261  and  _264
REMARK  104  A    between atoms: _264  and  _265
REMARK  105  A    between atoms: _275  and  _277
REMARK  106  A    between atoms: _277  and  _278
REMARK  107  A    between atoms: _281  and  _283
REMARK  108  A    between atoms: _283  and  _284
REMARK  109  A    between atoms: _283  and  _286
REMARK  110  A    between atoms: _286  and  _287
REMARK  111  A    between atoms: _293  and  _294
REMARK  112  A    between atoms: _300  and  _301
REMARK  113  A    between atoms: _306  and  _308
REMARK  114  A    between atoms: _308  and  _309
REMARK  115  A    between atoms: _308  and  _311
REMARK  116  A    between atoms: _311  and  _312
REMARK  117  A    between atoms: _317  and  _319
REMARK  118  A    between atoms: _319  and  _320
REMARK  119  A    between atoms: _319  and  _322
REMARK  120  A    between atoms: _322  and  _323
REMARK  121  A    between atoms: _326  and  _328
REMARK  122  A    between atoms: _328  and  _329
REMARK  123  A    between atoms: _332  and  _334
REMARK  124  A    between atoms: _334  and  _335
REMARK  125  A    between atoms: _334  and  _337
REMARK  126  A    between atoms: _337  and  _338
REMARK  127  A    between atoms: _341  and  _343
REMARK  128  A    between atoms: _343  and  _344
REMARK  129  A    between atoms: _347  and  _349
REMARK  130  A    between atoms: _349  and  _350
REMARK  131  A    between atoms: _349  and  _352
REMARK  132  A    between atoms: _352  and  _353
REMARK  133  A    between atoms: _363  and  _365
REMARK  134  A    between atoms: _365  and  _366
REMARK  135  A    between atoms: _365  and  _368
REMARK  136  A    between atoms: _368  and  _369
REMARK  137  A    between atoms: _374  and  _376
REMARK  138  A    between atoms: _376  and  _377
REMARK  139  A    between atoms: _376  and  _379
REMARK  140  A    between atoms: _379  and  _380
REMARK  141  A    between atoms: _385  and  _386
REMARK  142  A    between atoms: _388  and  _390
REMARK  143  A    between atoms: _390  and  _391
REMARK  144  A    between atoms: _390  and  _393
REMARK  145  A    between atoms: _396  and  _398
REMARK  146  A    between atoms: _398  and  _399
REMARK  147  A    between atoms: _398  and  _401
REMARK  148  A    between atoms: _401  and  _402
REMARK  149  A    between atoms: _404  and  _406
REMARK  150  A    between atoms: _406  and  _407
REMARK  151  A    between atoms: _406  and  _409
REMARK  152  A    between atoms: _409  and  _410
REMARK  153  A    between atoms: _420  and  _422
REMARK  154  A    between atoms: _422  and  _423
REMARK  155  A    between atoms: _422  and  _425
REMARK  156  A    between atoms: _425  and  _426
REMARK  157  A    between atoms: _431  and  _432
REMARK  158  A    between atoms: _434  and  _436
REMARK  159  A    between atoms: _436  and  _437
REMARK  160  A    between atoms: _436  and  _439
REMARK  161  A    between atoms: _439  and  _440
REMARK  162  A    between atoms: _443  and  _445
REMARK  163  A    between atoms: _445  and  _446
REMARK  164  A    between atoms: _445  and  _448
REMARK  165  A    between atoms: _448  and  _449
REMARK  166  A    between atoms: _452  and  _454
REMARK  167  A    between atoms: _454  and  _455
REMARK  168  A    between atoms: _454  and  _457
REMARK  169  A    between atoms: _457  and  _458
REMARK  170  A    between atoms: _461  and  _463
REMARK  171  A    between atoms: _463  and  _464
REMARK  172  A    between atoms: _463  and  _466
REMARK  173  A    between atoms: _466  and  _467
REMARK  174  A    between atoms: _472  and  _473
REMARK  175  A    between atoms: _475  and  _477
REMARK  176  A    between atoms: _477  and  _478
REMARK  177  A    between atoms: _477  and  _480
REMARK  178  A    between atoms: _482  and  _484
REMARK  179  A    between atoms: _484  and  _485
REMARK  180  A    between atoms: _487  and  _489
REMARK  181  A    between atoms: _489  and  _490
REMARK  182  A    between atoms: _489  and  _492
REMARK  183  A    between atoms: _492  and  _493
REMARK  184  A    between atoms: _496  and  _498
REMARK  185  A    between atoms: _498  and  _499
REMARK  186  A    between atoms: _498  and  _501
REMARK  187  A    between atoms: _501  and  _502
REMARK  188  A    between atoms: _512  and  _514
REMARK  189  A    between atoms: _514  and  _515
REMARK  190  A    between atoms: _514  and  _517
REMARK  191  A    between atoms: _517  and  _518
REMARK  192  A    between atoms: _521  and  _523
REMARK  193  A    between atoms: _523  and  _524
REMARK  194  A    between atoms: _523  and  _526
REMARK  195  A    between atoms: _526  and  _527
REMARK  196  A    between atoms: _532  and  _533
REMARK  197  A    between atoms: _535  and  _537
REMARK  198  A    between atoms: _537  and  _538
REMARK  199  A    between atoms: _537  and  _540
REMARK  200  A    between atoms: _540  and  _541
REMARK  201  A    between atoms: _544  and  _546
REMARK  202  A    between atoms: _546  and  _547
REMARK  203  A    between atoms: _546  and  _549
REMARK  204  A    between atoms: _549  and  _550
REMARK  205  A    between atoms: _550  and  _551
REMARK  206  A    between atoms: _551  and  _552
REMARK  207  A    between atoms: _561  and  _563
REMARK  208  A    between atoms: _563  and  _564
REMARK  209  A    between atoms: _567  and  _569
REMARK  210  A    between atoms: _569  and  _570
REMARK  211  A    between atoms: _569  and  _572
REMARK  212  A    between atoms: _575  and  _577
REMARK  213  A    between atoms: _577  and  _578
REMARK  214  A    between atoms: _580  and  _582
REMARK  215  A    between atoms: _582  and  _583
REMARK  216  A    between atoms: _582  and  _585
REMARK  217  A    between atoms: _585  and  _586
REMARK  218  A    between atoms: _589  and  _591
REMARK  219  A    between atoms: _591  and  _592
REMARK  220  A    between atoms: _591  and  _594
REMARK  221  A    between atoms: _594  and  _595
REMARK  222  A    between atoms: _601  and  _603
REMARK  223  A    between atoms: _603  and  _604
REMARK                            x       y       z     vdW  Elec       q    Type
REMARK                         _______ _______ _______ _____ _____    ______ ____
ROOT
ATOM      1  C   THR A   3      -2.053   6.328   1.272  0.00  0.00    +0.243 C 
ATOM      2  N   LEU A   4      -2.275   6.014   2.580  0.00  0.00    -0.297 N 
ATOM      3  H   LEU A   4      -3.093   5.410   2.799  0.00  0.00    +0.150 HD
ATOM      4  O   THR A   3      -1.067   6.948   0.874  0.00  0.00    -0.273 OA
ENDROOT
BRANCH   2   5
ATOM      5  CA  LEU A   4      -1.450   6.463   3.692  0.00  0.00    +0.149 C 
BRANCH   5   6
ATOM      6  C   LEU A   4      -0.882   5.348   4.557  0.00  0.00    +0.241 C 
ATOM      7  N   SER A   5       0.118   5.700   5.345  0.00  0.00    -0.295 N 
ATOM      8  H   SER A   5       0.483   6.671   5.267  0.00  0.00    +0.150 HD
ATOM      9  O   LEU A   4      -1.383   4.233   4.578  0.00  0.00    -0.273 OA
BRANCH   7  10
ATOM     10  CA  SER A   5       0.737   4.816   6.312  0.00  0.00    +0.178 C 
BRANCH  10  11
ATOM     11  C   SER A   5       1.328   5.636   7.438  0.00  0.00    +0.243 C 
ATOM     12  N   SER A   6       1.389   5.063   8.624  0.00  0.00    -0.296 N 
ATOM     13  H   SER A   6       0.994   4.108   8.741  0.00  0.00    +0.150 HD
ATOM     14  O   SER A   5       1.713   6.779   7.235  0.00  0.00    -0.273 OA
BRANCH  12  15
ATOM     15  CA  SER A   6       1.986   5.716   9.769  0.00  0.00    +0.166 C 
BRANCH  15  16
ATOM     16  CB  SER A   6       2.886   4.758  10.563  0.00  0.00    +0.229 C 
ATOM     17  OG  SER A   6       2.664   3.552  10.521  0.00  0.00    -0.286 OA
ENDBRANCH  15  16
BRANCH  15  18
ATOM     18  C   SER A   6       0.912   6.353  10.656  0.00  0.00    +0.165 C 
BRANCH  18  19
ATOM     19  O   SER A   6      -0.097   5.421  10.983  0.00  0.00    -0.380 OA
ATOM     20  H   SER A   6      -0.776   5.859  11.555  0.00  0.00    +0.211 HD
ENDBRANCH  18  19
ENDBRANCH  15  18
ENDBRANCH  12  15
ENDBRANCH  10  11
BRANCH  10  21
ATOM     21  CB  SER A   5       1.825   3.980   5.656  0.00  0.00    +0.166 C 
BRANCH  21  22
ATOM     22  OG  SER A   5       2.247   3.000   6.587  0.00  0.00    -0.380 OA
ATOM     23  H   SER A   5       2.957   2.443   6.179  0.00  0.00    +0.211 HD
ENDBRANCH  21  22
ENDBRANCH  10  21
ENDBRANCH   7  10
ENDBRANCH   5   6
BRANCH   5  24
ATOM     24  CB  LEU A   4      -2.231   7.485   4.576  0.00  0.00    +0.029 C 
BRANCH  24  25
ATOM     25  CG  LEU A   4      -3.496   6.942   5.315  0.00  0.00    +0.002 C 
ATOM     26  CD2 LEU A   4      -3.219   6.655   6.767  0.00  0.00    +0.000 C 
ATOM     27  CD1 LEU A   4      -4.660   7.881   5.199  0.00  0.00    +0.000 C 
ENDBRANCH  24  25
ENDBRANCH   5  24
ENDBRANCH   2   5
BRANCH   1  28
ATOM     28  CA  THR A   3      -3.123   5.858   0.269  0.00  0.00    +0.176 C 
BRANCH  28  31
ATOM     29  C   GLY A   2      -4.707   7.750   0.025  0.00  0.00    +0.243 C 
ATOM     30  O   GLY A   2      -5.159   7.600   1.169  0.00  0.00    -0.273 OA
ATOM     31  N   THR A   3      -3.718   6.975  -0.461  0.00  0.00    -0.295 N 
ATOM     32  H   THR A   3      -3.356   7.184  -1.413  0.00  0.00    +0.150 HD
BRANCH  29  33
ATOM     33  CA  GLY A   2      -5.223   8.862  -0.885  0.00  0.00    +0.176 C 
BRANCH  33  35
ATOM     34  C   PHE A   1      -4.936   7.954  -3.149  0.00  0.00    +0.239 C 
ATOM     35  N   GLY A   2      -4.571   8.825  -2.196  0.00  0.00    -0.296 N 
ATOM     36  H   GLY A   2      -3.801   9.495  -2.394  0.00  0.00    +0.150 HD
ATOM     37  O   PHE A   1      -5.840   7.133  -3.011  0.00  0.00    -0.274 OA
BRANCH  34  38
ATOM     38  CA  PHE A   1      -4.101   7.894  -4.408  0.00  0.00    +0.149 C 
BRANCH  38  39
ATOM     39  N   PHE A   1      -3.330   9.104  -4.698  0.00  0.00    -0.238 NA
ATOM     40  H   PHE A   1      -2.459   9.296  -4.163  0.00  0.00    +0.142 HD
ENDBRANCH  38  39
BRANCH  38  41
ATOM     41  CB  PHE A   1      -3.208   6.643  -4.361  0.00  0.00    +0.053 C 
BRANCH  41  42
ATOM     42  CG  PHE A   1      -2.197   6.463  -5.465  0.00  0.00    -0.020 A 
ATOM     43  CD2 PHE A   1      -0.975   5.843  -5.215  0.00  0.00    -0.004 A 
ATOM     44  CE2 PHE A   1      -0.041   5.650  -6.251  0.00  0.00    -0.000 A 
ATOM     45  CZ  PHE A   1      -0.320   6.099  -7.530  0.00  0.00    -0.000 A 
ATOM     46  CE1 PHE A   1      -1.532   6.700  -7.802  0.00  0.00    -0.000 A 
ATOM     47  CD1 PHE A   1      -2.491   6.845  -6.778  0.00  0.00    -0.004 A 
ENDBRANCH  41  42
ENDBRANCH  38  41
ENDBRANCH  34  38
ENDBRANCH  33  35
ENDBRANCH  29  33
ENDBRANCH  28  31
BRANCH  28  48
ATOM     48  CB  THR A   3      -2.622   4.804  -0.701  0.00  0.00    +0.137 C 
ATOM     49  CG2 THR A   3      -3.760   4.165  -1.476  0.00  0.00    +0.034 C 
BRANCH  48  50
ATOM     50  OG1 THR A   3      -1.677   5.438  -1.569  0.00  0.00    -0.382 OA
ATOM     51  HG1 THR A   3      -0.928   5.800  -1.032  0.00  0.00    +0.210 HD
ENDBRANCH  48  50
ENDBRANCH  28  48
ENDBRANCH   1  28
TORSDOF 22
REMARK  Name = ../refined-set-2016/5alb/5alb_pocket.pdb
REMARK  223 active torsions:
REMARK  status: ('A' for Active; 'I' for Inactive)
REMARK    1  A    between atoms: _1  and  _3
REMARK    2  A    between atoms: _3  and  _4
REMARK    3  A    between atoms: _3  and  _6
REMARK    4  A    between atoms: _6  and  _7
REMARK    5  A    between atoms: _12  and  _13
REMARK    6  A    between atoms: _15  and  _17
REMARK    7  A    between atoms: _17  and  _18
REMARK    8  A    between atoms: _17  and  _20
REMARK    9  A    between atoms: _20  and  _21
REMARK   10  A    between atoms: _23  and  _25
REMARK   11  A    between atoms: _25  and  _26
REMARK   12  A    between atoms: _25  and  _28
REMARK   13  A    between atoms: _28  and  _29
REMARK   14  A    between atoms: _32  and  _34
REMARK   15  A    between atoms: _34  and  _35
REMARK   16  A    between atoms: _34  and  _37
REMARK   17  A    between atoms: _37  and  _38
REMARK   18  A    between atoms: _43  and  _45
REMARK   19  A    between atoms: _45  and  _46
REMARK   20  A    between atoms: _45  and  _48
REMARK   21  A    between atoms: _48  and  _49
REMARK   22  A    between atoms: _59  and  _61
REMARK   23  A    between atoms: _61  and  _62
REMARK   24  A    between atoms: _61  and  _64
REMARK   25  A    between atoms: _67  and  _69
REMARK   26  A    between atoms: _69  and  _70
REMARK   27  A    between atoms: _69  and  _72
REMARK   28  A    between atoms: _72  and  _73
REMARK   29  A    between atoms: _76  and  _78
REMARK   30  A    between atoms: _78  and  _79
REMARK   31  A    between atoms: _78  and  _81
REMARK   32  A    between atoms: _81  and  _82
REMARK   33  A    between atoms: _82  and  _83
REMARK   34  A    between atoms: _86  and  _88
REMARK   35  A    between atoms: _88  and  _89
REMARK   36  A    between atoms: _88  and  _91
REMARK   37  A    between atoms: _91  and  _92
REMARK   38  A    between atoms: _102  and  _104
REMARK   39  A    between atoms: _104  and  _105
REMARK   40  A    between atoms: _104  and  _107
REMARK   41  A    between atoms: _107  and  _108
REMARK   42  A    between atoms: _108  and  _109
REMARK   43  A    between atoms: _111  and  _113
REMARK   44  A    between atoms: _113  and  _114
REMARK   45  A    between atoms: _116  and  _118
REMARK   46  A    between atoms: _118  and  _119
REMARK   47  A    between atoms: _121  and  _123
REMARK   48  A    between atoms: _123  and  _124
REMARK   49  A    between atoms: _123  and  _126
REMARK   50  A    between atoms: _126  and  _127
REMARK   51  A    between atoms: _130  and  _132
REMARK   52  A    between atoms: _132  and  _133
REMARK   53  A    between atoms: _132  and  _135
REMARK   54  A    between atoms: _135  and  _136
REMARK   55  A    between atoms: _140  and  _141
REMARK   56  A    between atoms: _146  and  _148
REMARK   57  A    between atoms: _148  and  _149
REMARK   58  A    between atoms: _148  and  _151
REMARK   59  A    between atoms: _151  and  _152
REMARK   60  A    between atoms: _158  and  _160
REMARK   61  A    between atoms: _160  and  _161
REMARK   62  A    between atoms: _163  and  _165
REMARK   63  A    between atoms: _165  and  _166
REMARK   64  A    between atoms: _165  and  _168
REMARK   65  A    between atoms: _168  and  _169
REMARK   66  A    between atoms: _172  and  _174
REMARK   67  A    between atoms: _174  and  _175
REMARK   68  A    between atoms: _174  and  _177
REMARK   69  A    between atoms: _177  and  _178
REMARK   70  A    between atoms: _181  and  _183
REMARK   71  A    between atoms: _183  and  _184
REMARK   72  A    between atoms: _183  and  _186
REMARK   73  A    between atoms: _186  and  _187
REMARK   74  A    between atoms: _189  and  _191
REMARK   75  A    between atoms: _191  and  _192
REMARK   76  A    between atoms: _191  and  _194
REMARK   77  A    between atoms: _194  and  _195
REMARK   78  A    between atoms: _197  and  _199
REMARK   79  A    between atoms: _199  and  _200
REMARK   80  A    between atoms: _203  and  _205
REMARK   81  A    between atoms: _205  and  _206
REMARK   82  A    between atoms: _205  and  _208
REMARK   83  A    between atoms: _208  and  _209
REMARK   84  A    between atoms: _209  and  _210
REMARK   85  A    between atoms: _210  and  _211
REMARK   86  A    between atoms: _220  and  _222
REMARK   87  A    between atoms: _222  and  _223
REMARK   88  A    between atoms: _225  and  _227
REMARK   89  A    between atoms: _227  and  _228
REMARK   90  A    between atoms: _227  and  _230
REMARK   91  A    between atoms: _230  and  _231
REMARK   92  A    between atoms: _233  and  _235
REMARK   93  A    between atoms: _235  and  _236
REMARK   94  A    between atoms: _235  and  _238
REMARK   95  A    between atoms: _238  and  _239
REMARK   96  A    between atoms: _245  and  _247
REMARK   97  A    between atoms: _247  and  _248
REMARK   98  A    between atoms: _247  and  _250
REMARK   99  A    between atoms: _250  and  _251
REMARK  100  A    between atoms: _256  and  _257
REMARK  101  A    between atoms: _259  and  _261
REMARK  102  A    between atoms: _261  and  _262
REMARK  103  A    between atoms: _261  and  _264
REMARK  104  A    between atoms: _264  and  _265
REMARK  105  A    between atoms: _275  and  _277
REMARK  106  A    between atoms: _277  and  _278
REMARK  107  A    between atoms: _281  and  _283
REMARK  108  A    between atoms: _283  and  _284
REMARK  109  A    between atoms: _283  and  _286
REMARK  110  A    between atoms: _286  and  _287
REMARK  111  A    between atoms: _293  and  _294
REMARK  112  A    between atoms: _300  and  _301
REMARK  113  A    between atoms: _306  and  _308
REMARK  114  A    between atoms: _308  and  _309
REMARK  115  A    between atoms: _308  and  _311
REMARK  116  A    between atoms: _311  and  _312
REMARK  117  A    between atoms: _317  and  _319
REMARK  118  A    between atoms: _319  and  _320
REMARK  119  A    between atoms: _319  and  _322
REMARK  120  A    between atoms: _322  and  _323
REMARK  121  A    between atoms: _326  and  _328
REMARK  122  A    between atoms: _328  and  _329
REMARK  123  A    between atoms: _332  and  _334
REMARK  124  A    between atoms: _334  and  _335
REMARK  125  A    between atoms: _334  and  _337
REMARK  126  A    between atoms: _337  and  _338
REMARK  127  A    between atoms: _341  and  _343
REMARK  128  A    between atoms: _343  and  _344
REMARK  129  A    between atoms: _347  and  _349
REMARK  130  A    between atoms: _349  and  _350
REMARK  131  A    between atoms: _349  and  _352
REMARK  132  A    between atoms: _352  and  _353
REMARK  133  A    between atoms: _363  and  _365
REMARK  134  A    between atoms: _365  and  _366
REMARK  135  A    between atoms: _365  and  _368
REMARK  136  A    between atoms: _368  and  _369
REMARK  137  A    between atoms: _374  and  _376
REMARK  138  A    between atoms: _376  and  _377
REMARK  139  A    between atoms: _376  and  _379
REMARK  140  A    between atoms: _379  and  _380
REMARK  141  A    between atoms: _385  and  _386
REMARK  142  A    between atoms: _388  and  _390
REMARK  143  A    between atoms: _390  and  _391
REMARK  144  A    between atoms: _390  and  _393
REMARK  145  A    between atoms: _396  and  _398
REMARK  146  A    between atoms: _398  and  _399
REMARK  147  A    between atoms: _398  and  _401
REMARK  148  A    between atoms: _401  and  _402
REMARK  149  A    between atoms: _404  and  _406
REMARK  150  A    between atoms: _406  and  _407
REMARK  151  A    between atoms: _406  and  _409
REMARK  152  A    between atoms: _409  and  _410
REMARK  153  A    between atoms: _420  and  _422
REMARK  154  A    between atoms: _422  and  _423
REMARK  155  A    between atoms: _422  and  _425
REMARK  156  A    between atoms: _425  and  _426
REMARK  157  A    between atoms: _431  and  _432
REMARK  158  A    between atoms: _434  and  _436
REMARK  159  A    between atoms: _436  and  _437
REMARK  160  A    between atoms: _436  and  _439
REMARK  161  A    between atoms: _439  and  _440
REMARK  162  A    between atoms: _443  and  _445
REMARK  163  A    between atoms: _445  and  _446
REMARK  164  A    between atoms: _445  and  _448
REMARK  165  A    between atoms: _448  and  _449
REMARK  166  A    between atoms: _452  and  _454
REMARK  167  A    between atoms: _454  and  _455
REMARK  168  A    between atoms: _454  and  _457
REMARK  169  A    between atoms: _457  and  _458
REMARK  170  A    between atoms: _461  and  _463
REMARK  171  A    between atoms: _463  and  _464
REMARK  172  A    between atoms: _463  and  _466
REMARK  173  A    between atoms: _466  and  _467
REMARK  174  A    between atoms: _472  and  _473
REMARK  175  A    between atoms: _475  and  _477
REMARK  176  A    between atoms: _477  and  _478
REMARK  177  A    between atoms: _477  and  _480
REMARK  178  A    between atoms: _482  and  _484
REMARK  179  A    between atoms: _484  and  _485
REMARK  180  A    between atoms: _487  and  _489
REMARK  181  A    between atoms: _489  and  _490
REMARK  182  A    between atoms: _489  and  _492
REMARK  183  A    between atoms: _492  and  _493
REMARK  184  A    between atoms: _496  and  _498
REMARK  185  A    between atoms: _498  and  _499
REMARK  186  A    between atoms: _498  and  _501
REMARK  187  A    between atoms: _501  and  _502
REMARK  188  A    between atoms: _512  and  _514
REMARK  189  A    between atoms: _514  and  _515
REMARK  190  A    between atoms: _514  and  _517
REMARK  191  A    between atoms: _517  and  _518
REMARK  192  A    between atoms: _521  and  _523
REMARK  193  A    between atoms: _523  and  _524
REMARK  194  A    between atoms: _523  and  _526
REMARK  195  A    between atoms: _526  and  _527
REMARK  196  A    between atoms: _532  and  _533
REMARK  197  A    between atoms: _535  and  _537
REMARK  198  A    between atoms: _537  and  _538
REMARK  199  A    between atoms: _537  and  _540
REMARK  200  A    between atoms: _540  and  _541
REMARK  201  A    between atoms: _544  and  _546
REMARK  202  A    between atoms: _546  and  _547
REMARK  203  A    between atoms: _546  and  _549
REMARK  204  A    between atoms: _549  and  _550
REMARK  205  A    between atoms: _550  and  _551
REMARK  206  A    between atoms: _551  and  _552
REMARK  207  A    between atoms: _561  and  _563
REMARK  208  A    between atoms: _563  and  _564
REMARK  209  A    between atoms: _567  and  _569
REMARK  210  A    between atoms: _569  and  _570
REMARK  211  A    between atoms: _569  and  _572
REMARK  212  A    between atoms: _575  and  _577
REMARK  213  A    between atoms: _577  and  _578
REMARK  214  A    between atoms: _580  and  _582
REMARK  215  A    between atoms: _582  and  _583
REMARK  216  A    between atoms: _582  and  _585
REMARK  217  A    between atoms: _585  and  _586
REMARK  218  A    between atoms: _589  and  _591
REMARK  219  A    between atoms: _591  and  _592
REMARK  220  A    between atoms: _591  and  _594
REMARK  221  A    between atoms: _594  and  _595
REMARK  222  A    between atoms: _601  and  _603
REMARK  223  A    between atoms: _603  and  _604
REMARK                            x       y       z     vdW  Elec       q    Type
REMARK                         _______ _______ _______ _____ _____    ______ ____
ROOT
ATOM      1  C   ARG A   2       9.242  14.476  -1.517  0.00  0.00    +0.241 C 
ATOM      2  O   ARG A   2      10.448  14.746  -1.554  0.00  0.00    -0.273 OA
ATOM      3  N   GLY A   3       8.718  13.342  -1.978  0.00  0.00    -0.295 N 
ATOM      4  H   GLY A   3       7.695  13.187  -1.870  0.00  0.00    +0.150 HD
ENDROOT
BRANCH   3   5
ATOM      5  CA  GLY A   3       9.511  12.313  -2.625  0.00  0.00    +0.176 C 
BRANCH   5   6
ATOM      6  C   GLY A   3       9.911  12.708  -4.031  0.00  0.00    +0.243 C 
ATOM      7  N   SER A   4      10.890  11.997  -4.561  0.00  0.00    -0.295 N 
ATOM      8  H   SER A   4      11.314  11.240  -3.987  0.00  0.00    +0.150 HD
ATOM      9  O   GLY A   3       9.371  13.663  -4.614  0.00  0.00    -0.273 OA
BRANCH   7  10
ATOM     10  CA  SER A   4      11.411  12.215  -5.909  0.00  0.00    +0.178 C 
BRANCH  10  11
ATOM     11  C   SER A   4      10.617  11.388  -6.958  0.00  0.00    +0.243 C 
ATOM     12  N   PHE A   5      10.101  10.196  -6.573  0.00  0.00    -0.298 N 
ATOM     13  H   PHE A   5      10.188   9.909  -5.577  0.00  0.00    +0.150 HD
ATOM     14  O   SER A   4      10.498  11.825  -8.109  0.00  0.00    -0.273 OA
BRANCH  12  15
ATOM     15  CA  PHE A   5       9.428   9.303  -7.507  0.00  0.00    +0.141 C 
BRANCH  15  16
ATOM     16  C   PHE A   5       8.042   9.724  -7.931  0.00  0.00    +0.227 C 
ATOM     17  O   PHE A   5       7.232  10.117  -7.102  0.00  0.00    -0.286 OA
ENDBRANCH  15  16
BRANCH  15  18
ATOM     18  CB  PHE A   5       9.379   7.871  -6.940  0.00  0.00    +0.054 C 
BRANCH  18  19
ATOM     19  CG  PHE A   5       9.038   6.774  -7.943  0.00  0.00    -0.020 A 
ATOM     20  CD2 PHE A   5       7.776   6.185  -7.954  0.00  0.00    -0.004 A 
ATOM     21  CE2 PHE A   5       7.473   5.147  -8.842  0.00  0.00    -0.000 A 
ATOM     22  CZ  PHE A   5       8.436   4.690  -9.724  0.00  0.00    -0.000 A 
ATOM     23  CE1 PHE A   5       9.692   5.273  -9.740  0.00  0.00    -0.000 A 
ATOM     24  CD1 PHE A   5       9.998   6.303  -8.841  0.00  0.00    -0.004 A 
ENDBRANCH  18  19
ENDBRANCH  15  18
ENDBRANCH  12  15
ENDBRANCH  10  11
BRANCH  10  25
ATOM     25  CB  SER A   4      12.876  11.799  -5.953  0.00  0.00    +0.166 C 
BRANCH  25  26
ATOM     26  OG  SER A   4      13.021  10.528  -5.327  0.00  0.00    -0.380 OA
ATOM     27  H   SER A   4      13.972  10.255  -5.354  0.00  0.00    +0.211 HD
ENDBRANCH  25  26
ENDBRANCH  10  25
ENDBRANCH   7  10
ENDBRANCH   5   6
ENDBRANCH   3   5
BRANCH   1  28
ATOM     28  CA  ARG A   2       8.258  15.414  -0.862  0.00  0.00    +0.149 C 
BRANCH  28  31
ATOM     29  C   ALA A   1       8.290  15.619   1.594  0.00  0.00    +0.238 C 
ATOM     30  O   ALA A   1       7.330  14.856   1.738  0.00  0.00    -0.274 OA
ATOM     31  N   ARG A   2       8.808  15.922   0.387  0.00  0.00    -0.297 N 
ATOM     32  H   ARG A   2       9.638  16.547   0.346  0.00  0.00    +0.150 HD
BRANCH  29  33
ATOM     33  CA  ALA A   1       8.966  16.261   2.821  0.00  0.00    +0.145 C 
ATOM     34  CB  ALA A   1      10.146  15.423   3.292  0.00  0.00    +0.028 C 
BRANCH  33  35
ATOM     35  N   ALA A   1       8.030  16.474   3.923  0.00  0.00    -0.238 NA
ATOM     36  H   ALA A   1       7.328  15.737   4.139  0.00  0.00    +0.142 HD
ENDBRANCH  33  35
ENDBRANCH  29  33
ENDBRANCH  28  31
BRANCH  28  37
ATOM     37  CB  ARG A   2       7.830  16.566  -1.798  0.00  0.00    +0.033 C 
BRANCH  37  38
ATOM     38  CG  ARG A   2       6.735  16.172  -2.814  0.00  0.00    +0.045 C 
BRANCH  38  39
ATOM     39  CD  ARG A   2       6.978  16.791  -4.182  0.00  0.00    +0.174 C 
BRANCH  39  40
ATOM     40  NE  ARG A   2       8.189  16.224  -4.775  0.00  0.00    -0.265 N 
ATOM     41  HE  ARG A   2       8.570  15.360  -4.339  0.00  0.00    +0.259 HD
ATOM     42  CZ  ARG A   2       8.846  16.715  -5.821  0.00  0.00    +0.342 C 
ATOM     43  NH2 ARG A   2       9.951  16.124  -6.250  0.00  0.00    -0.292 N 
ATOM     44 HH21 ARG A   2      10.307  15.274  -5.768  0.00  0.00    +0.255 HD
ATOM     45 HH22 ARG A   2      10.463  16.510  -7.069  0.00  0.00    +0.255 HD
ATOM     46  NH1 ARG A   2       8.415  17.818  -6.433  0.00  0.00    -0.292 N 
ATOM     47 HH11 ARG A   2       7.559  18.301  -6.093  0.00  0.00    +0.255 HD
ATOM     48 HH12 ARG A   2       8.935  18.196  -7.251  0.00  0.00    +0.255 HD
ENDBRANCH  39  40
ENDBRANCH  38  39
ENDBRANCH  37  38
ENDBRANCH  28  37
ENDBRANCH   1  28
TORSDOF 18
REMARK  Name = ../refined-set-2016/5alb/5alb_pocket.pdb
REMARK  223 active torsions:
REMARK  status: ('A' for Active; 'I' for Inactive)
REMARK    1  A    between atoms: _1  and  _3
REMARK    2  A    between atoms: _3  and  _4
REMARK    3  A    between atoms: _3  and  _6
REMARK    4  A    between atoms: _6  and  _7
REMARK    5  A    between atoms: _12  and  _13
REMARK    6  A    between atoms: _15  and  _17
REMARK    7  A    between atoms: _17  and  _18
REMARK    8  A    between atoms: _17  and  _20
REMARK    9  A    between atoms: _20  and  _21
REMARK   10  A    between atoms: _23  and  _25
REMARK   11  A    between atoms: _25  and  _26
REMARK   12  A    between atoms: _25  and  _28
REMARK   13  A    between atoms: _28  and  _29
REMARK   14  A    between atoms: _32  and  _34
REMARK   15  A    between atoms: _34  and  _35
REMARK   16  A    between atoms: _34  and  _37
REMARK   17  A    between atoms: _37  and  _38
REMARK   18  A    between atoms: _43  and  _45
REMARK   19  A    between atoms: _45  and  _46
REMARK   20  A    between atoms: _45  and  _48
REMARK   21  A    between atoms: _48  and  _49
REMARK   22  A    between atoms: _59  and  _61
REMARK   23  A    between atoms: _61  and  _62
REMARK   24  A    between atoms: _61  and  _64
REMARK   25  A    between atoms: _67  and  _69
REMARK   26  A    between atoms: _69  and  _70
REMARK   27  A    between atoms: _69  and  _72
REMARK   28  A    between atoms: _72  and  _73
REMARK   29  A    between atoms: _76  and  _78
REMARK   30  A    between atoms: _78  and  _79
REMARK   31  A    between atoms: _78  and  _81
REMARK   32  A    between atoms: _81  and  _82
REMARK   33  A    between atoms: _82  and  _83
REMARK   34  A    between atoms: _86  and  _88
REMARK   35  A    between atoms: _88  and  _89
REMARK   36  A    between atoms: _88  and  _91
REMARK   37  A    between atoms: _91  and  _92
REMARK   38  A    between atoms: _102  and  _104
REMARK   39  A    between atoms: _104  and  _105
REMARK   40  A    between atoms: _104  and  _107
REMARK   41  A    between atoms: _107  and  _108
REMARK   42  A    between atoms: _108  and  _109
REMARK   43  A    between atoms: _111  and  _113
REMARK   44  A    between atoms: _113  and  _114
REMARK   45  A    between atoms: _116  and  _118
REMARK   46  A    between atoms: _118  and  _119
REMARK   47  A    between atoms: _121  and  _123
REMARK   48  A    between atoms: _123  and  _124
REMARK   49  A    between atoms: _123  and  _126
REMARK   50  A    between atoms: _126  and  _127
REMARK   51  A    between atoms: _130  and  _132
REMARK   52  A    between atoms: _132  and  _133
REMARK   53  A    between atoms: _132  and  _135
REMARK   54  A    between atoms: _135  and  _136
REMARK   55  A    between atoms: _140  and  _141
REMARK   56  A    between atoms: _146  and  _148
REMARK   57  A    between atoms: _148  and  _149
REMARK   58  A    between atoms: _148  and  _151
REMARK   59  A    between atoms: _151  and  _152
REMARK   60  A    between atoms: _158  and  _160
REMARK   61  A    between atoms: _160  and  _161
REMARK   62  A    between atoms: _163  and  _165
REMARK   63  A    between atoms: _165  and  _166
REMARK   64  A    between atoms: _165  and  _168
REMARK   65  A    between atoms: _168  and  _169
REMARK   66  A    between atoms: _172  and  _174
REMARK   67  A    between atoms: _174  and  _175
REMARK   68  A    between atoms: _174  and  _177
REMARK   69  A    between atoms: _177  and  _178
REMARK   70  A    between atoms: _181  and  _183
REMARK   71  A    between atoms: _183  and  _184
REMARK   72  A    between atoms: _183  and  _186
REMARK   73  A    between atoms: _186  and  _187
REMARK   74  A    between atoms: _189  and  _191
REMARK   75  A    between atoms: _191  and  _192
REMARK   76  A    between atoms: _191  and  _194
REMARK   77  A    between atoms: _194  and  _195
REMARK   78  A    between atoms: _197  and  _199
REMARK   79  A    between atoms: _199  and  _200
REMARK   80  A    between atoms: _203  and  _205
REMARK   81  A    between atoms: _205  and  _206
REMARK   82  A    between atoms: _205  and  _208
REMARK   83  A    between atoms: _208  and  _209
REMARK   84  A    between atoms: _209  and  _210
REMARK   85  A    between atoms: _210  and  _211
REMARK   86  A    between atoms: _220  and  _222
REMARK   87  A    between atoms: _222  and  _223
REMARK   88  A    between atoms: _225  and  _227
REMARK   89  A    between atoms: _227  and  _228
REMARK   90  A    between atoms: _227  and  _230
REMARK   91  A    between atoms: _230  and  _231
REMARK   92  A    between atoms: _233  and  _235
REMARK   93  A    between atoms: _235  and  _236
REMARK   94  A    between atoms: _235  and  _238
REMARK   95  A    between atoms: _238  and  _239
REMARK   96  A    between atoms: _245  and  _247
REMARK   97  A    between atoms: _247  and  _248
REMARK   98  A    between atoms: _247  and  _250
REMARK   99  A    between atoms: _250  and  _251
REMARK  100  A    between atoms: _256  and  _257
REMARK  101  A    between atoms: _259  and  _261
REMARK  102  A    between atoms: _261  and  _262
REMARK  103  A    between atoms: _261  and  _264
REMARK  104  A    between atoms: _264  and  _265
REMARK  105  A    between atoms: _275  and  _277
REMARK  106  A    between atoms: _277  and  _278
REMARK  107  A    between atoms: _281  and  _283
REMARK  108  A    between atoms: _283  and  _284
REMARK  109  A    between atoms: _283  and  _286
REMARK  110  A    between atoms: _286  and  _287
REMARK  111  A    between atoms: _293  and  _294
REMARK  112  A    between atoms: _300  and  _301
REMARK  113  A    between atoms: _306  and  _308
REMARK  114  A    between atoms: _308  and  _309
REMARK  115  A    between atoms: _308  and  _311
REMARK  116  A    between atoms: _311  and  _312
REMARK  117  A    between atoms: _317  and  _319
REMARK  118  A    between atoms: _319  and  _320
REMARK  119  A    between atoms: _319  and  _322
REMARK  120  A    between atoms: _322  and  _323
REMARK  121  A    between atoms: _326  and  _328
REMARK  122  A    between atoms: _328  and  _329
REMARK  123  A    between atoms: _332  and  _334
REMARK  124  A    between atoms: _334  and  _335
REMARK  125  A    between atoms: _334  and  _337
REMARK  126  A    between atoms: _337  and  _338
REMARK  127  A    between atoms: _341  and  _343
REMARK  128  A    between atoms: _343  and  _344
REMARK  129  A    between atoms: _347  and  _349
REMARK  130  A    between atoms: _349  and  _350
REMARK  131  A    between atoms: _349  and  _352
REMARK  132  A    between atoms: _352  and  _353
REMARK  133  A    between atoms: _363  and  _365
REMARK  134  A    between atoms: _365  and  _366
REMARK  135  A    between atoms: _365  and  _368
REMARK  136  A    between atoms: _368  and  _369
REMARK  137  A    between atoms: _374  and  _376
REMARK  138  A    between atoms: _376  and  _377
REMARK  139  A    between atoms: _376  and  _379
REMARK  140  A    between atoms: _379  and  _380
REMARK  141  A    between atoms: _385  and  _386
REMARK  142  A    between atoms: _388  and  _390
REMARK  143  A    between atoms: _390  and  _391
REMARK  144  A    between atoms: _390  and  _393
REMARK  145  A    between atoms: _396  and  _398
REMARK  146  A    between atoms: _398  and  _399
REMARK  147  A    between atoms: _398  and  _401
REMARK  148  A    between atoms: _401  and  _402
REMARK  149  A    between atoms: _404  and  _406
REMARK  150  A    between atoms: _406  and  _407
REMARK  151  A    between atoms: _406  and  _409
REMARK  152  A    between atoms: _409  and  _410
REMARK  153  A    between atoms: _420  and  _422
REMARK  154  A    between atoms: _422  and  _423
REMARK  155  A    between atoms: _422  and  _425
REMARK  156  A    between atoms: _425  and  _426
REMARK  157  A    between atoms: _431  and  _432
REMARK  158  A    between atoms: _434  and  _436
REMARK  159  A    between atoms: _436  and  _437
REMARK  160  A    between atoms: _436  and  _439
REMARK  161  A    between atoms: _439  and  _440
REMARK  162  A    between atoms: _443  and  _445
REMARK  163  A    between atoms: _445  and  _446
REMARK  164  A    between atoms: _445  and  _448
REMARK  165  A    between atoms: _448  and  _449
REMARK  166  A    between atoms: _452  and  _454
REMARK  167  A    between atoms: _454  and  _455
REMARK  168  A    between atoms: _454  and  _457
REMARK  169  A    between atoms: _457  and  _458
REMARK  170  A    between atoms: _461  and  _463
REMARK  171  A    between atoms: _463  and  _464
REMARK  172  A    between atoms: _463  and  _466
REMARK  173  A    between atoms: _466  and  _467
REMARK  174  A    between atoms: _472  and  _473
REMARK  175  A    between atoms: _475  and  _477
REMARK  176  A    between atoms: _477  and  _478
REMARK  177  A    between atoms: _477  and  _480
REMARK  178  A    between atoms: _482  and  _484
REMARK  179  A    between atoms: _484  and  _485
REMARK  180  A    between atoms: _487  and  _489
REMARK  181  A    between atoms: _489  and  _490
REMARK  182  A    between atoms: _489  and  _492
REMARK  183  A    between atoms: _492  and  _493
REMARK  184  A    between atoms: _496  and  _498
REMARK  185  A    between atoms: _498  and  _499
REMARK  186  A    between atoms: _498  and  _501
REMARK  187  A    between atoms: _501  and  _502
REMARK  188  A    between atoms: _512  and  _514
REMARK  189  A    between atoms: _514  and  _515
REMARK  190  A    between atoms: _514  and  _517
REMARK  191  A    between atoms: _517  and  _518
REMARK  192  A    between atoms: _521  and  _523
REMARK  193  A    between atoms: _523  and  _524
REMARK  194  A    between atoms: _523  and  _526
REMARK  195  A    between atoms: _526  and  _527
REMARK  196  A    between atoms: _532  and  _533
REMARK  197  A    between atoms: _535  and  _537
REMARK  198  A    between atoms: _537  and  _538
REMARK  199  A    between atoms: _537  and  _540
REMARK  200  A    between atoms: _540  and  _541
REMARK  201  A    between atoms: _544  and  _546
REMARK  202  A    between atoms: _546  and  _547
REMARK  203  A    between atoms: _546  and  _549
REMARK  204  A    between atoms: _549  and  _550
REMARK  205  A    between atoms: _550  and  _551
REMARK  206  A    between atoms: _551  and  _552
REMARK  207  A    between atoms: _561  and  _563
REMARK  208  A    between atoms: _563  and  _564
REMARK  209  A    between atoms: _567  and  _569
REMARK  210  A    between atoms: _569  and  _570
REMARK  211  A    between atoms: _569  and  _572
REMARK  212  A    between atoms: _575  and  _577
REMARK  213  A    between atoms: _577  and  _578
REMARK  214  A    between atoms: _580  and  _582
REMARK  215  A    between atoms: _582  and  _583
REMARK  216  A    between atoms: _582  and  _585
REMARK  217  A    between atoms: _585  and  _586
REMARK  218  A    between atoms: _589  and  _591
REMARK  219  A    between atoms: _591  and  _592
REMARK  220  A    between atoms: _591  and  _594
REMARK  221  A    between atoms: _594  and  _595
REMARK  222  A    between atoms: _601  and  _603
REMARK  223  A    between atoms: _603  and  _604
REMARK                            x       y       z     vdW  Elec       q    Type
REMARK                         _______ _______ _______ _____ _____    ______ ____
ROOT
ATOM      1  CG  TYR A   1       4.264   6.752  -6.151  0.00  0.00    -0.020 A 
ATOM      2  CD2 TYR A   1       4.928   7.787  -5.498  0.00  0.00    -0.001 A 
ATOM      3  CE2 TYR A   1       5.917   7.527  -4.555  0.00  0.00    +0.036 A 
ATOM      4  CZ  TYR A   1       6.248   6.220  -4.254  0.00  0.00    +0.134 A 
ATOM      5  CE1 TYR A   1       5.602   5.177  -4.890  0.00  0.00    +0.036 A 
ATOM      6  CD1 TYR A   1       4.624   5.447  -5.839  0.00  0.00    -0.001 A 
ENDROOT
BRANCH   4   7
ATOM      7  OH  TYR A   1       7.253   5.939  -3.366  0.00  0.00    -0.506 OA
ATOM      8  HH  TYR A   1       8.102   6.324  -3.698  0.00  0.00    +0.292 HD
ENDBRANCH   4   7
BRANCH   1   9
ATOM      9  CB  TYR A   1       3.239   7.039  -7.227  0.00  0.00    +0.051 C 
BRANCH   9  10
ATOM     10  CA  TYR A   1       3.924   7.070  -8.610  0.00  0.00    +0.137 C 
BRANCH  10  11
ATOM     11  N   TYR A   1       4.682   8.310  -8.818  0.00  0.00    -0.239 NA
ATOM     12  H   TYR A   1       4.446   9.132  -8.226  0.00  0.00    +0.142 HD
ENDBRANCH  10  11
BRANCH  10  13
ATOM     13  C   TYR A   1       2.945   6.707  -9.729  0.00  0.00    +0.224 C 
ATOM     14  O   TYR A   1       2.441   5.589  -9.717  0.00  0.00    -0.287 OA
ENDBRANCH  10  13
ENDBRANCH   9  10
ENDBRANCH   1   9
TORSDOF 5
REMARK  Name = ../refined-set-2016/5alb/5alb_pocket.pdb
REMARK  223 active torsions:
REMARK  status: ('A' for Active; 'I' for Inactive)
REMARK    1  A    between atoms: _1  and  _3
REMARK    2  A    between atoms: _3  and  _4
REMARK    3  A    between atoms: _3  and  _6
REMARK    4  A    between atoms: _6  and  _7
REMARK    5  A    between atoms: _12  and  _13
REMARK    6  A    between atoms: _15  and  _17
REMARK    7  A    between atoms: _17  and  _18
REMARK    8  A    between atoms: _17  and  _20
REMARK    9  A    between atoms: _20  and  _21
REMARK   10  A    between atoms: _23  and  _25
REMARK   11  A    between atoms: _25  and  _26
REMARK   12  A    between atoms: _25  and  _28
REMARK   13  A    between atoms: _28  and  _29
REMARK   14  A    between atoms: _32  and  _34
REMARK   15  A    between atoms: _34  and  _35
REMARK   16  A    between atoms: _34  and  _37
REMARK   17  A    between atoms: _37  and  _38
REMARK   18  A    between atoms: _43  and  _45
REMARK   19  A    between atoms: _45  and  _46
REMARK   20  A    between atoms: _45  and  _48
REMARK   21  A    between atoms: _48  and  _49
REMARK   22  A    between atoms: _59  and  _61
REMARK   23  A    between atoms: _61  and  _62
REMARK   24  A    between atoms: _61  and  _64
REMARK   25  A    between atoms: _67  and  _69
REMARK   26  A    between atoms: _69  and  _70
REMARK   27  A    between atoms: _69  and  _72
REMARK   28  A    between atoms: _72  and  _73
REMARK   29  A    between atoms: _76  and  _78
REMARK   30  A    between atoms: _78  and  _79
REMARK   31  A    between atoms: _78  and  _81
REMARK   32  A    between atoms: _81  and  _82
REMARK   33  A    between atoms: _82  and  _83
REMARK   34  A    between atoms: _86  and  _88
REMARK   35  A    between atoms: _88  and  _89
REMARK   36  A    between atoms: _88  and  _91
REMARK   37  A    between atoms: _91  and  _92
REMARK   38  A    between atoms: _102  and  _104
REMARK   39  A    between atoms: _104  and  _105
REMARK   40  A    between atoms: _104  and  _107
REMARK   41  A    between atoms: _107  and  _108
REMARK   42  A    between atoms: _108  and  _109
REMARK   43  A    between atoms: _111  and  _113
REMARK   44  A    between atoms: _113  and  _114
REMARK   45  A    between atoms: _116  and  _118
REMARK   46  A    between atoms: _118  and  _119
REMARK   47  A    between atoms: _121  and  _123
REMARK   48  A    between atoms: _123  and  _124
REMARK   49  A    between atoms: _123  and  _126
REMARK   50  A    between atoms: _126  and  _127
REMARK   51  A    between atoms: _130  and  _132
REMARK   52  A    between atoms: _132  and  _133
REMARK   53  A    between atoms: _132  and  _135
REMARK   54  A    between atoms: _135  and  _136
REMARK   55  A    between atoms: _140  and  _141
REMARK   56  A    between atoms: _146  and  _148
REMARK   57  A    between atoms: _148  and  _149
REMARK   58  A    between atoms: _148  and  _151
REMARK   59  A    between atoms: _151  and  _152
REMARK   60  A    between atoms: _158  and  _160
REMARK   61  A    between atoms: _160  and  _161
REMARK   62  A    between atoms: _163  and  _165
REMARK   63  A    between atoms: _165  and  _166
REMARK   64  A    between atoms: _165  and  _168
REMARK   65  A    between atoms: _168  and  _169
REMARK   66  A    between atoms: _172  and  _174
REMARK   67  A    between atoms: _174  and  _175
REMARK   68  A    between atoms: _174  and  _177
REMARK   69  A    between atoms: _177  and  _178
REMARK   70  A    between atoms: _181  and  _183
REMARK   71  A    between atoms: _183  and  _184
REMARK   72  A    between atoms: _183  and  _186
REMARK   73  A    between atoms: _186  and  _187
REMARK   74  A    between atoms: _189  and  _191
REMARK   75  A    between atoms: _191  and  _192
REMARK   76  A    between atoms: _191  and  _194
REMARK   77  A    between atoms: _194  and  _195
REMARK   78  A    between atoms: _197  and  _199
REMARK   79  A    between atoms: _199  and  _200
REMARK   80  A    between atoms: _203  and  _205
REMARK   81  A    between atoms: _205  and  _206
REMARK   82  A    between atoms: _205  and  _208
REMARK   83  A    between atoms: _208  and  _209
REMARK   84  A    between atoms: _209  and  _210
REMARK   85  A    between atoms: _210  and  _211
REMARK   86  A    between atoms: _220  and  _222
REMARK   87  A    between atoms: _222  and  _223
REMARK   88  A    between atoms: _225  and  _227
REMARK   89  A    between atoms: _227  and  _228
REMARK   90  A    between atoms: _227  and  _230
REMARK   91  A    between atoms: _230  and  _231
REMARK   92  A    between atoms: _233  and  _235
REMARK   93  A    between atoms: _235  and  _236
REMARK   94  A    between atoms: _235  and  _238
REMARK   95  A    between atoms: _238  and  _239
REMARK   96  A    between atoms: _245  and  _247
REMARK   97  A    between atoms: _247  and  _248
REMARK   98  A    between atoms: _247  and  _250
REMARK   99  A    between atoms: _250  and  _251
REMARK  100  A    between atoms: _256  and  _257
REMARK  101  A    between atoms: _259  and  _261
REMARK  102  A    between atoms: _261  and  _262
REMARK  103  A    between atoms: _261  and  _264
REMARK  104  A    between atoms: _264  and  _265
REMARK  105  A    between atoms: _275  and  _277
REMARK  106  A    between atoms: _277  and  _278
REMARK  107  A    between atoms: _281  and  _283
REMARK  108  A    between atoms: _283  and  _284
REMARK  109  A    between atoms: _283  and  _286
REMARK  110  A    between atoms: _286  and  _287
REMARK  111  A    between atoms: _293  and  _294
REMARK  112  A    between atoms: _300  and  _301
REMARK  113  A    between atoms: _306  and  _308
REMARK  114  A    between atoms: _308  and  _309
REMARK  115  A    between atoms: _308  and  _311
REMARK  116  A    between atoms: _311  and  _312
REMARK  117  A    between atoms: _317  and  _319
REMARK  118  A    between atoms: _319  and  _320
REMARK  119  A    between atoms: _319  and  _322
REMARK  120  A    between atoms: _322  and  _323
REMARK  121  A    between atoms: _326  and  _328
REMARK  122  A    between atoms: _328  and  _329
REMARK  123  A    between atoms: _332  and  _334
REMARK  124  A    between atoms: _334  and  _335
REMARK  125  A    between atoms: _334  and  _337
REMARK  126  A    between atoms: _337  and  _338
REMARK  127  A    between atoms: _341  and  _343
REMARK  128  A    between atoms: _343  and  _344
REMARK  129  A    between atoms: _347  and  _349
REMARK  130  A    between atoms: _349  and  _350
REMARK  131  A    between atoms: _349  and  _352
REMARK  132  A    between atoms: _352  and  _353
REMARK  133  A    between atoms: _363  and  _365
REMARK  134  A    between atoms: _365  and  _366
REMARK  135  A    between atoms: _365  and  _368
REMARK  136  A    between atoms: _368  and  _369
REMARK  137  A    between atoms: _374  and  _376
REMARK  138  A    between atoms: _376  and  _377
REMARK  139  A    between atoms: _376  and  _379
REMARK  140  A    between atoms: _379  and  _380
REMARK  141  A    between atoms: _385  and  _386
REMARK  142  A    between atoms: _388  and  _390
REMARK  143  A    between atoms: _390  and  _391
REMARK  144  A    between atoms: _390  and  _393
REMARK  145  A    between atoms: _396  and  _398
REMARK  146  A    between atoms: _398  and  _399
REMARK  147  A    between atoms: _398  and  _401
REMARK  148  A    between atoms: _401  and  _402
REMARK  149  A    between atoms: _404  and  _406
REMARK  150  A    between atoms: _406  and  _407
REMARK  151  A    between atoms: _406  and  _409
REMARK  152  A    between atoms: _409  and  _410
REMARK  153  A    between atoms: _420  and  _422
REMARK  154  A    between atoms: _422  and  _423
REMARK  155  A    between atoms: _422  and  _425
REMARK  156  A    between atoms: _425  and  _426
REMARK  157  A    between atoms: _431  and  _432
REMARK  158  A    between atoms: _434  and  _436
REMARK  159  A    between atoms: _436  and  _437
REMARK  160  A    between atoms: _436  and  _439
REMARK  161  A    between atoms: _439  and  _440
REMARK  162  A    between atoms: _443  and  _445
REMARK  163  A    between atoms: _445  and  _446
REMARK  164  A    between atoms: _445  and  _448
REMARK  165  A    between atoms: _448  and  _449
REMARK  166  A    between atoms: _452  and  _454
REMARK  167  A    between atoms: _454  and  _455
REMARK  168  A    between atoms: _454  and  _457
REMARK  169  A    between atoms: _457  and  _458
REMARK  170  A    between atoms: _461  and  _463
REMARK  171  A    between atoms: _463  and  _464
REMARK  172  A    between atoms: _463  and  _466
REMARK  173  A    between atoms: _466  and  _467
REMARK  174  A    between atoms: _472  and  _473
REMARK  175  A    between atoms: _475  and  _477
REMARK  176  A    between atoms: _477  and  _478
REMARK  177  A    between atoms: _477  and  _480
REMARK  178  A    between atoms: _482  and  _484
REMARK  179  A    between atoms: _484  and  _485
REMARK  180  A    between atoms: _487  and  _489
REMARK  181  A    between atoms: _489  and  _490
REMARK  182  A    between atoms: _489  and  _492
REMARK  183  A    between atoms: _492  and  _493
REMARK  184  A    between atoms: _496  and  _498
REMARK  185  A    between atoms: _498  and  _499
REMARK  186  A    between atoms: _498  and  _501
REMARK  187  A    between atoms: _501  and  _502
REMARK  188  A    between atoms: _512  and  _514
REMARK  189  A    between atoms: _514  and  _515
REMARK  190  A    between atoms: _514  and  _517
REMARK  191  A    between atoms: _517  and  _518
REMARK  192  A    between atoms: _521  and  _523
REMARK  193  A    between atoms: _523  and  _524
REMARK  194  A    between atoms: _523  and  _526
REMARK  195  A    between atoms: _526  and  _527
REMARK  196  A    between atoms: _532  and  _533
REMARK  197  A    between atoms: _535  and  _537
REMARK  198  A    between atoms: _537  and  _538
REMARK  199  A    between atoms: _537  and  _540
REMARK  200  A    between atoms: _540  and  _541
REMARK  201  A    between atoms: _544  and  _546
REMARK  202  A    between atoms: _546  and  _547
REMARK  203  A    between atoms: _546  and  _549
REMARK  204  A    between atoms: _549  and  _550
REMARK  205  A    between atoms: _550  and  _551
REMARK  206  A    between atoms: _551  and  _552
REMARK  207  A    between atoms: _561  and  _563
REMARK  208  A    between atoms: _563  and  _564
REMARK  209  A    between atoms: _567  and  _569
REMARK  210  A    between atoms: _569  and  _570
REMARK  211  A    between atoms: _569  and  _572
REMARK  212  A    between atoms: _575  and  _577
REMARK  213  A    between atoms: _577  and  _578
REMARK  214  A    between atoms: _580  and  _582
REMARK  215  A    between atoms: _582  and  _583
REMARK  216  A    between atoms: _582  and  _585
REMARK  217  A    between atoms: _585  and  _586
REMARK  218  A    between atoms: _589  and  _591
REMARK  219  A    between atoms: _591  and  _592
REMARK  220  A    between atoms: _591  and  _594
REMARK  221  A    between atoms: _594  and  _595
REMARK  222  A    between atoms: _601  and  _603
REMARK  223  A    between atoms: _603  and  _604
REMARK                            x       y       z     vdW  Elec       q    Type
REMARK                         _______ _______ _______ _____ _____    ______ ____
ROOT
ATOM      1  CG  TRP A   1       4.444   2.119  -7.778  0.00  0.00    -0.002 A 
ATOM      2  CD2 TRP A   1       3.369   1.729  -6.923  0.00  0.00    +0.013 A 
ATOM      3  CE2 TRP A   1       3.857   0.713  -6.072  0.00  0.00    +0.056 A 
ATOM      4  CZ2 TRP A   1       3.062   0.126  -5.074  0.00  0.00    +0.017 A 
ATOM      5  CH2 TRP A   1       1.736   0.509  -5.015  0.00  0.00    +0.001 A 
ATOM      6  CZ3 TRP A   1       1.221   1.510  -5.852  0.00  0.00    +0.000 A 
ATOM      7  NE1 TRP A   1       5.174   0.511  -6.391  0.00  0.00    -0.352 N 
ATOM      8  HE1 TRP A   1       5.809  -0.173  -5.932  0.00  0.00    +0.166 HD
ATOM      9  CE3 TRP A   1       2.025   2.139  -6.795  0.00  0.00    +0.001 A 
ATOM     10  CD1 TRP A   1       5.520   1.358  -7.415  0.00  0.00    +0.068 A 
ENDROOT
BRANCH   1  11
ATOM     11  CB  TRP A   1       4.388   3.162  -8.854  0.00  0.00    +0.053 C 
BRANCH  11  12
ATOM     12  CA  TRP A   1       4.922   2.726 -10.233  0.00  0.00    +0.137 C 
BRANCH  12  13
ATOM     13  N   TRP A   1       4.684   3.782 -11.205  0.00  0.00    -0.239 NA
ATOM     14  H   TRP A   1       4.001   4.528 -10.964  0.00  0.00    +0.142 HD
ENDBRANCH  12  13
BRANCH  12  15
ATOM     15  C   TRP A   1       4.298   1.404 -10.645  0.00  0.00    +0.224 C 
ATOM     16  O   TRP A   1       3.155   1.368 -11.089  0.00  0.00    -0.287 OA
ENDBRANCH  12  15
ENDBRANCH  11  12
ENDBRANCH   1  11
TORSDOF 4
REMARK  Name = ../refined-set-2016/5alb/5alb_pocket.pdb
REMARK  223 active torsions:
REMARK  status: ('A' for Active; 'I' for Inactive)
REMARK    1  A    between atoms: _1  and  _3
REMARK    2  A    between atoms: _3  and  _4
REMARK    3  A    between atoms: _3  and  _6
REMARK    4  A    between atoms: _6  and  _7
REMARK    5  A    between atoms: _12  and  _13
REMARK    6  A    between atoms: _15  and  _17
REMARK    7  A    between atoms: _17  and  _18
REMARK    8  A    between atoms: _17  and  _20
REMARK    9  A    between atoms: _20  and  _21
REMARK   10  A    between atoms: _23  and  _25
REMARK   11  A    between atoms: _25  and  _26
REMARK   12  A    between atoms: _25  and  _28
REMARK   13  A    between atoms: _28  and  _29
REMARK   14  A    between atoms: _32  and  _34
REMARK   15  A    between atoms: _34  and  _35
REMARK   16  A    between atoms: _34  and  _37
REMARK   17  A    between atoms: _37  and  _38
REMARK   18  A    between atoms: _43  and  _45
REMARK   19  A    between atoms: _45  and  _46
REMARK   20  A    between atoms: _45  and  _48
REMARK   21  A    between atoms: _48  and  _49
REMARK   22  A    between atoms: _59  and  _61
REMARK   23  A    between atoms: _61  and  _62
REMARK   24  A    between atoms: _61  and  _64
REMARK   25  A    between atoms: _67  and  _69
REMARK   26  A    between atoms: _69  and  _70
REMARK   27  A    between atoms: _69  and  _72
REMARK   28  A    between atoms: _72  and  _73
REMARK   29  A    between atoms: _76  and  _78
REMARK   30  A    between atoms: _78  and  _79
REMARK   31  A    between atoms: _78  and  _81
REMARK   32  A    between atoms: _81  and  _82
REMARK   33  A    between atoms: _82  and  _83
REMARK   34  A    between atoms: _86  and  _88
REMARK   35  A    between atoms: _88  and  _89
REMARK   36  A    between atoms: _88  and  _91
REMARK   37  A    between atoms: _91  and  _92
REMARK   38  A    between atoms: _102  and  _104
REMARK   39  A    between atoms: _104  and  _105
REMARK   40  A    between atoms: _104  and  _107
REMARK   41  A    between atoms: _107  and  _108
REMARK   42  A    between atoms: _108  and  _109
REMARK   43  A    between atoms: _111  and  _113
REMARK   44  A    between atoms: _113  and  _114
REMARK   45  A    between atoms: _116  and  _118
REMARK   46  A    between atoms: _118  and  _119
REMARK   47  A    between atoms: _121  and  _123
REMARK   48  A    between atoms: _123  and  _124
REMARK   49  A    between atoms: _123  and  _126
REMARK   50  A    between atoms: _126  and  _127
REMARK   51  A    between atoms: _130  and  _132
REMARK   52  A    between atoms: _132  and  _133
REMARK   53  A    between atoms: _132  and  _135
REMARK   54  A    between atoms: _135  and  _136
REMARK   55  A    between atoms: _140  and  _141
REMARK   56  A    between atoms: _146  and  _148
REMARK   57  A    between atoms: _148  and  _149
REMARK   58  A    between atoms: _148  and  _151
REMARK   59  A    between atoms: _151  and  _152
REMARK   60  A    between atoms: _158  and  _160
REMARK   61  A    between atoms: _160  and  _161
REMARK   62  A    between atoms: _163  and  _165
REMARK   63  A    between atoms: _165  and  _166
REMARK   64  A    between atoms: _165  and  _168
REMARK   65  A    between atoms: _168  and  _169
REMARK   66  A    between atoms: _172  and  _174
REMARK   67  A    between atoms: _174  and  _175
REMARK   68  A    between atoms: _174  and  _177
REMARK   69  A    between atoms: _177  and  _178
REMARK   70  A    between atoms: _181  and  _183
REMARK   71  A    between atoms: _183  and  _184
REMARK   72  A    between atoms: _183  and  _186
REMARK   73  A    between atoms: _186  and  _187
REMARK   74  A    between atoms: _189  and  _191
REMARK   75  A    between atoms: _191  and  _192
REMARK   76  A    between atoms: _191  and  _194
REMARK   77  A    between atoms: _194  and  _195
REMARK   78  A    between atoms: _197  and  _199
REMARK   79  A    between atoms: _199  and  _200
REMARK   80  A    between atoms: _203  and  _205
REMARK   81  A    between atoms: _205  and  _206
REMARK   82  A    between atoms: _205  and  _208
REMARK   83  A    between atoms: _208  and  _209
REMARK   84  A    between atoms: _209  and  _210
REMARK   85  A    between atoms: _210  and  _211
REMARK   86  A    between atoms: _220  and  _222
REMARK   87  A    between atoms: _222  and  _223
REMARK   88  A    between atoms: _225  and  _227
REMARK   89  A    between atoms: _227  and  _228
REMARK   90  A    between atoms: _227  and  _230
REMARK   91  A    between atoms: _230  and  _231
REMARK   92  A    between atoms: _233  and  _235
REMARK   93  A    between atoms: _235  and  _236
REMARK   94  A    between atoms: _235  and  _238
REMARK   95  A    between atoms: _238  and  _239
REMARK   96  A    between atoms: _245  and  _247
REMARK   97  A    between atoms: _247  and  _248
REMARK   98  A    between atoms: _247  and  _250
REMARK   99  A    between atoms: _250  and  _251
REMARK  100  A    between atoms: _256  and  _257
REMARK  101  A    between atoms: _259  and  _261
REMARK  102  A    between atoms: _261  and  _262
REMARK  103  A    between atoms: _261  and  _264
REMARK  104  A    between atoms: _264  and  _265
REMARK  105  A    between atoms: _275  and  _277
REMARK  106  A    between atoms: _277  and  _278
REMARK  107  A    between atoms: _281  and  _283
REMARK  108  A    between atoms: _283  and  _284
REMARK  109  A    between atoms: _283  and  _286
REMARK  110  A    between atoms: _286  and  _287
REMARK  111  A    between atoms: _293  and  _294
REMARK  112  A    between atoms: _300  and  _301
REMARK  113  A    between atoms: _306  and  _308
REMARK  114  A    between atoms: _308  and  _309
REMARK  115  A    between atoms: _308  and  _311
REMARK  116  A    between atoms: _311  and  _312
REMARK  117  A    between atoms: _317  and  _319
REMARK  118  A    between atoms: _319  and  _320
REMARK  119  A    between atoms: _319  and  _322
REMARK  120  A    between atoms: _322  and  _323
REMARK  121  A    between atoms: _326  and  _328
REMARK  122  A    between atoms: _328  and  _329
REMARK  123  A    between atoms: _332  and  _334
REMARK  124  A    between atoms: _334  and  _335
REMARK  125  A    between atoms: _334  and  _337
REMARK  126  A    between atoms: _337  and  _338
REMARK  127  A    between atoms: _341  and  _343
REMARK  128  A    between atoms: _343  and  _344
REMARK  129  A    between atoms: _347  and  _349
REMARK  130  A    between atoms: _349  and  _350
REMARK  131  A    between atoms: _349  and  _352
REMARK  132  A    between atoms: _352  and  _353
REMARK  133  A    between atoms: _363  and  _365
REMARK  134  A    between atoms: _365  and  _366
REMARK  135  A    between atoms: _365  and  _368
REMARK  136  A    between atoms: _368  and  _369
REMARK  137  A    between atoms: _374  and  _376
REMARK  138  A    between atoms: _376  and  _377
REMARK  139  A    between atoms: _376  and  _379
REMARK  140  A    between atoms: _379  and  _380
REMARK  141  A    between atoms: _385  and  _386
REMARK  142  A    between atoms: _388  and  _390
REMARK  143  A    between atoms: _390  and  _391
REMARK  144  A    between atoms: _390  and  _393
REMARK  145  A    between atoms: _396  and  _398
REMARK  146  A    between atoms: _398  and  _399
REMARK  147  A    between atoms: _398  and  _401
REMARK  148  A    between atoms: _401  and  _402
REMARK  149  A    between atoms: _404  and  _406
REMARK  150  A    between atoms: _406  and  _407
REMARK  151  A    between atoms: _406  and  _409
REMARK  152  A    between atoms: _409  and  _410
REMARK  153  A    between atoms: _420  and  _422
REMARK  154  A    between atoms: _422  and  _423
REMARK  155  A    between atoms: _422  and  _425
REMARK  156  A    between atoms: _425  and  _426
REMARK  157  A    between atoms: _431  and  _432
REMARK  158  A    between atoms: _434  and  _436
REMARK  159  A    between atoms: _436  and  _437
REMARK  160  A    between atoms: _436  and  _439
REMARK  161  A    between atoms: _439  and  _440
REMARK  162  A    between atoms: _443  and  _445
REMARK  163  A    between atoms: _445  and  _446
REMARK  164  A    between atoms: _445  and  _448
REMARK  165  A    between atoms: _448  and  _449
REMARK  166  A    between atoms: _452  and  _454
REMARK  167  A    between atoms: _454  and  _455
REMARK  168  A    between atoms: _454  and  _457
REMARK  169  A    between atoms: _457  and  _458
REMARK  170  A    between atoms: _461  and  _463
REMARK  171  A    between atoms: _463  and  _464
REMARK  172  A    between atoms: _463  and  _466
REMARK  173  A    between atoms: _466  and  _467
REMARK  174  A    between atoms: _472  and  _473
REMARK  175  A    between atoms: _475  and  _477
REMARK  176  A    between atoms: _477  and  _478
REMARK  177  A    between atoms: _477  and  _480
REMARK  178  A    between atoms: _482  and  _484
REMARK  179  A    between atoms: _484  and  _485
REMARK  180  A    between atoms: _487  and  _489
REMARK  181  A    between atoms: _489  and  _490
REMARK  182  A    between atoms: _489  and  _492
REMARK  183  A    between atoms: _492  and  _493
REMARK  184  A    between atoms: _496  and  _498
REMARK  185  A    between atoms: _498  and  _499
REMARK  186  A    between atoms: _498  and  _501
REMARK  187  A    between atoms: _501  and  _502
REMARK  188  A    between atoms: _512  and  _514
REMARK  189  A    between atoms: _514  and  _515
REMARK  190  A    between atoms: _514  and  _517
REMARK  191  A    between atoms: _517  and  _518
REMARK  192  A    between atoms: _521  and  _523
REMARK  193  A    between atoms: _523  and  _524
REMARK  194  A    between atoms: _523  and  _526
REMARK  195  A    between atoms: _526  and  _527
REMARK  196  A    between atoms: _532  and  _533
REMARK  197  A    between atoms: _535  and  _537
REMARK  198  A    between atoms: _537  and  _538
REMARK  199  A    between atoms: _537  and  _540
REMARK  200  A    between atoms: _540  and  _541
REMARK  201  A    between atoms: _544  and  _546
REMARK  202  A    between atoms: _546  and  _547
REMARK  203  A    between atoms: _546  and  _549
REMARK  204  A    between atoms: _549  and  _550
REMARK  205  A    between atoms: _550  and  _551
REMARK  206  A    between atoms: _551  and  _552
REMARK  207  A    between atoms: _561  and  _563
REMARK  208  A    between atoms: _563  and  _564
REMARK  209  A    between atoms: _567  and  _569
REMARK  210  A    between atoms: _569  and  _570
REMARK  211  A    between atoms: _569  and  _572
REMARK  212  A    between atoms: _575  and  _577
REMARK  213  A    between atoms: _577  and  _578
REMARK  214  A    between atoms: _580  and  _582
REMARK  215  A    between atoms: _582  and  _583
REMARK  216  A    between atoms: _582  and  _585
REMARK  217  A    between atoms: _585  and  _586
REMARK  218  A    between atoms: _589  and  _591
REMARK  219  A    between atoms: _591  and  _592
REMARK  220  A    between atoms: _591  and  _594
REMARK  221  A    between atoms: _594  and  _595
REMARK  222  A    between atoms: _601  and  _603
REMARK  223  A    between atoms: _603  and  _604
REMARK                            x       y       z     vdW  Elec       q    Type
REMARK                         _______ _______ _______ _____ _____    ______ ____
ROOT
ATOM      1  CA  ALA A   1       3.908  -2.738  -7.312  0.00  0.00    +0.133 C 
ATOM      2  CB  ALA A   1       2.507  -3.076  -6.831  0.00  0.00    +0.027 C 
ENDROOT
BRANCH   1   3
ATOM      3  N   ALA A   1       3.855  -2.186  -8.661  0.00  0.00    -0.239 NA
ATOM      4  H   ALA A   1       2.928  -2.161  -9.132  0.00  0.00    +0.142 HD
ENDBRANCH   1   3
BRANCH   1   5
ATOM      5  C   ALA A   1       4.854  -3.943  -7.132  0.00  0.00    +0.224 C 
ATOM      6  O   ALA A   1       5.281  -4.208  -6.012  0.00  0.00    -0.287 OA
ENDBRANCH   1   5
TORSDOF 2
REMARK  Name = ../refined-set-2016/5alb/5alb_pocket.pdb
REMARK  223 active torsions:
REMARK  status: ('A' for Active; 'I' for Inactive)
REMARK    1  A    between atoms: _1  and  _3
REMARK    2  A    between atoms: _3  and  _4
REMARK    3  A    between atoms: _3  and  _6
REMARK    4  A    between atoms: _6  and  _7
REMARK    5  A    between atoms: _12  and  _13
REMARK    6  A    between atoms: _15  and  _17
REMARK    7  A    between atoms: _17  and  _18
REMARK    8  A    between atoms: _17  and  _20
REMARK    9  A    between atoms: _20  and  _21
REMARK   10  A    between atoms: _23  and  _25
REMARK   11  A    between atoms: _25  and  _26
REMARK   12  A    between atoms: _25  and  _28
REMARK   13  A    between atoms: _28  and  _29
REMARK   14  A    between atoms: _32  and  _34
REMARK   15  A    between atoms: _34  and  _35
REMARK   16  A    between atoms: _34  and  _37
REMARK   17  A    between atoms: _37  and  _38
REMARK   18  A    between atoms: _43  and  _45
REMARK   19  A    between atoms: _45  and  _46
REMARK   20  A    between atoms: _45  and  _48
REMARK   21  A    between atoms: _48  and  _49
REMARK   22  A    between atoms: _59  and  _61
REMARK   23  A    between atoms: _61  and  _62
REMARK   24  A    between atoms: _61  and  _64
REMARK   25  A    between atoms: _67  and  _69
REMARK   26  A    between atoms: _69  and  _70
REMARK   27  A    between atoms: _69  and  _72
REMARK   28  A    between atoms: _72  and  _73
REMARK   29  A    between atoms: _76  and  _78
REMARK   30  A    between atoms: _78  and  _79
REMARK   31  A    between atoms: _78  and  _81
REMARK   32  A    between atoms: _81  and  _82
REMARK   33  A    between atoms: _82  and  _83
REMARK   34  A    between atoms: _86  and  _88
REMARK   35  A    between atoms: _88  and  _89
REMARK   36  A    between atoms: _88  and  _91
REMARK   37  A    between atoms: _91  and  _92
REMARK   38  A    between atoms: _102  and  _104
REMARK   39  A    between atoms: _104  and  _105
REMARK   40  A    between atoms: _104  and  _107
REMARK   41  A    between atoms: _107  and  _108
REMARK   42  A    between atoms: _108  and  _109
REMARK   43  A    between atoms: _111  and  _113
REMARK   44  A    between atoms: _113  and  _114
REMARK   45  A    between atoms: _116  and  _118
REMARK   46  A    between atoms: _118  and  _119
REMARK   47  A    between atoms: _121  and  _123
REMARK   48  A    between atoms: _123  and  _124
REMARK   49  A    between atoms: _123  and  _126
REMARK   50  A    between atoms: _126  and  _127
REMARK   51  A    between atoms: _130  and  _132
REMARK   52  A    between atoms: _132  and  _133
REMARK   53  A    between atoms: _132  and  _135
REMARK   54  A    between atoms: _135  and  _136
REMARK   55  A    between atoms: _140  and  _141
REMARK   56  A    between atoms: _146  and  _148
REMARK   57  A    between atoms: _148  and  _149
REMARK   58  A    between atoms: _148  and  _151
REMARK   59  A    between atoms: _151  and  _152
REMARK   60  A    between atoms: _158  and  _160
REMARK   61  A    between atoms: _160  and  _161
REMARK   62  A    between atoms: _163  and  _165
REMARK   63  A    between atoms: _165  and  _166
REMARK   64  A    between atoms: _165  and  _168
REMARK   65  A    between atoms: _168  and  _169
REMARK   66  A    between atoms: _172  and  _174
REMARK   67  A    between atoms: _174  and  _175
REMARK   68  A    between atoms: _174  and  _177
REMARK   69  A    between atoms: _177  and  _178
REMARK   70  A    between atoms: _181  and  _183
REMARK   71  A    between atoms: _183  and  _184
REMARK   72  A    between atoms: _183  and  _186
REMARK   73  A    between atoms: _186  and  _187
REMARK   74  A    between atoms: _189  and  _191
REMARK   75  A    between atoms: _191  and  _192
REMARK   76  A    between atoms: _191  and  _194
REMARK   77  A    between atoms: _194  and  _195
REMARK   78  A    between atoms: _197  and  _199
REMARK   79  A    between atoms: _199  and  _200
REMARK   80  A    between atoms: _203  and  _205
REMARK   81  A    between atoms: _205  and  _206
REMARK   82  A    between atoms: _205  and  _208
REMARK   83  A    between atoms: _208  and  _209
REMARK   84  A    between atoms: _209  and  _210
REMARK   85  A    between atoms: _210  and  _211
REMARK   86  A    between atoms: _220  and  _222
REMARK   87  A    between atoms: _222  and  _223
REMARK   88  A    between atoms: _225  and  _227
REMARK   89  A    between atoms: _227  and  _228
REMARK   90  A    between atoms: _227  and  _230
REMARK   91  A    between atoms: _230  and  _231
REMARK   92  A    between atoms: _233  and  _235
REMARK   93  A    between atoms: _235  and  _236
REMARK   94  A    between atoms: _235  and  _238
REMARK   95  A    between atoms: _238  and  _239
REMARK   96  A    between atoms: _245  and  _247
REMARK   97  A    between atoms: _247  and  _248
REMARK   98  A    between atoms: _247  and  _250
REMARK   99  A    between atoms: _250  and  _251
REMARK  100  A    between atoms: _256  and  _257
REMARK  101  A    between atoms: _259  and  _261
REMARK  102  A    between atoms: _261  and  _262
REMARK  103  A    between atoms: _261  and  _264
REMARK  104  A    between atoms: _264  and  _265
REMARK  105  A    between atoms: _275  and  _277
REMARK  106  A    between atoms: _277  and  _278
REMARK  107  A    between atoms: _281  and  _283
REMARK  108  A    between atoms: _283  and  _284
REMARK  109  A    between atoms: _283  and  _286
REMARK  110  A    between atoms: _286  and  _287
REMARK  111  A    between atoms: _293  and  _294
REMARK  112  A    between atoms: _300  and  _301
REMARK  113  A    between atoms: _306  and  _308
REMARK  114  A    between atoms: _308  and  _309
REMARK  115  A    between atoms: _308  and  _311
REMARK  116  A    between atoms: _311  and  _312
REMARK  117  A    between atoms: _317  and  _319
REMARK  118  A    between atoms: _319  and  _320
REMARK  119  A    between atoms: _319  and  _322
REMARK  120  A    between atoms: _322  and  _323
REMARK  121  A    between atoms: _326  and  _328
REMARK  122  A    between atoms: _328  and  _329
REMARK  123  A    between atoms: _332  and  _334
REMARK  124  A    between atoms: _334  and  _335
REMARK  125  A    between atoms: _334  and  _337
REMARK  126  A    between atoms: _337  and  _338
REMARK  127  A    between atoms: _341  and  _343
REMARK  128  A    between atoms: _343  and  _344
REMARK  129  A    between atoms: _347  and  _349
REMARK  130  A    between atoms: _349  and  _350
REMARK  131  A    between atoms: _349  and  _352
REMARK  132  A    between atoms: _352  and  _353
REMARK  133  A    between atoms: _363  and  _365
REMARK  134  A    between atoms: _365  and  _366
REMARK  135  A    between atoms: _365  and  _368
REMARK  136  A    between atoms: _368  and  _369
REMARK  137  A    between atoms: _374  and  _376
REMARK  138  A    between atoms: _376  and  _377
REMARK  139  A    between atoms: _376  and  _379
REMARK  140  A    between atoms: _379  and  _380
REMARK  141  A    between atoms: _385  and  _386
REMARK  142  A    between atoms: _388  and  _390
REMARK  143  A    between atoms: _390  and  _391
REMARK  144  A    between atoms: _390  and  _393
REMARK  145  A    between atoms: _396  and  _398
REMARK  146  A    between atoms: _398  and  _399
REMARK  147  A    between atoms: _398  and  _401
REMARK  148  A    between atoms: _401  and  _402
REMARK  149  A    between atoms: _404  and  _406
REMARK  150  A    between atoms: _406  and  _407
REMARK  151  A    between atoms: _406  and  _409
REMARK  152  A    between atoms: _409  and  _410
REMARK  153  A    between atoms: _420  and  _422
REMARK  154  A    between atoms: _422  and  _423
REMARK  155  A    between atoms: _422  and  _425
REMARK  156  A    between atoms: _425  and  _426
REMARK  157  A    between atoms: _431  and  _432
REMARK  158  A    between atoms: _434  and  _436
REMARK  159  A    between atoms: _436  and  _437
REMARK  160  A    between atoms: _436  and  _439
REMARK  161  A    between atoms: _439  and  _440
REMARK  162  A    between atoms: _443  and  _445
REMARK  163  A    between atoms: _445  and  _446
REMARK  164  A    between atoms: _445  and  _448
REMARK  165  A    between atoms: _448  and  _449
REMARK  166  A    between atoms: _452  and  _454
REMARK  167  A    between atoms: _454  and  _455
REMARK  168  A    between atoms: _454  and  _457
REMARK  169  A    between atoms: _457  and  _458
REMARK  170  A    between atoms: _461  and  _463
REMARK  171  A    between atoms: _463  and  _464
REMARK  172  A    between atoms: _463  and  _466
REMARK  173  A    between atoms: _466  and  _467
REMARK  174  A    between atoms: _472  and  _473
REMARK  175  A    between atoms: _475  and  _477
REMARK  176  A    between atoms: _477  and  _478
REMARK  177  A    between atoms: _477  and  _480
REMARK  178  A    between atoms: _482  and  _484
REMARK  179  A    between atoms: _484  and  _485
REMARK  180  A    between atoms: _487  and  _489
REMARK  181  A    between atoms: _489  and  _490
REMARK  182  A    between atoms: _489  and  _492
REMARK  183  A    between atoms: _492  and  _493
REMARK  184  A    between atoms: _496  and  _498
REMARK  185  A    between atoms: _498  and  _499
REMARK  186  A    between atoms: _498  and  _501
REMARK  187  A    between atoms: _501  and  _502
REMARK  188  A    between atoms: _512  and  _514
REMARK  189  A    between atoms: _514  and  _515
REMARK  190  A    between atoms: _514  and  _517
REMARK  191  A    between atoms: _517  and  _518
REMARK  192  A    between atoms: _521  and  _523
REMARK  193  A    between atoms: _523  and  _524
REMARK  194  A    between atoms: _523  and  _526
REMARK  195  A    between atoms: _526  and  _527
REMARK  196  A    between atoms: _532  and  _533
REMARK  197  A    between atoms: _535  and  _537
REMARK  198  A    between atoms: _537  and  _538
REMARK  199  A    between atoms: _537  and  _540
REMARK  200  A    between atoms: _540  and  _541
REMARK  201  A    between atoms: _544  and  _546
REMARK  202  A    between atoms: _546  and  _547
REMARK  203  A    between atoms: _546  and  _549
REMARK  204  A    between atoms: _549  and  _550
REMARK  205  A    between atoms: _550  and  _551
REMARK  206  A    between atoms: _551  and  _552
REMARK  207  A    between atoms: _561  and  _563
REMARK  208  A    between atoms: _563  and  _564
REMARK  209  A    between atoms: _567  and  _569
REMARK  210  A    between atoms: _569  and  _570
REMARK  211  A    between atoms: _569  and  _572
REMARK  212  A    between atoms: _575  and  _577
REMARK  213  A    between atoms: _577  and  _578
REMARK  214  A    between atoms: _580  and  _582
REMARK  215  A    between atoms: _582  and  _583
REMARK  216  A    between atoms: _582  and  _585
REMARK  217  A    between atoms: _585  and  _586
REMARK  218  A    between atoms: _589  and  _591
REMARK  219  A    between atoms: _591  and  _592
REMARK  220  A    between atoms: _591  and  _594
REMARK  221  A    between atoms: _594  and  _595
REMARK  222  A    between atoms: _601  and  _603
REMARK  223  A    between atoms: _603  and  _604
REMARK                            x       y       z     vdW  Elec       q    Type
REMARK                         _______ _______ _______ _____ _____    ______ ____
ROOT
ATOM      1  CA  ASN A   4      14.068   4.397  -5.550  0.00  0.00    +0.158 C 
ENDROOT
BRANCH   1   4
ATOM      2  C   PRO A   3      11.969   3.013  -5.487  0.00  0.00    +0.241 C 
ATOM      3  O   PRO A   3      12.019   2.774  -4.273  0.00  0.00    -0.273 OA
ATOM      4  N   ASN A   4      12.902   3.726  -6.148  0.00  0.00    -0.297 N 
ATOM      5  H   ASN A   4      12.788   3.810  -7.178  0.00  0.00    +0.150 HD
BRANCH   2  11
ATOM      6  C   PRO A   2      10.704   0.082  -5.970  0.00  0.00    +0.244 C 
ATOM      7  N   PRO A   3      10.175   1.305  -5.740  0.00  0.00    -0.272 N 
ATOM      8  CD  PRO A   3       8.991   1.686  -4.940  0.00  0.00    +0.094 C 
ATOM      9  CG  PRO A   3       8.642   3.068  -5.447  0.00  0.00    +0.024 C 
ATOM     10  CB  PRO A   3       9.669   3.496  -6.448  0.00  0.00    +0.031 C 
ATOM     11  CA  PRO A   3      10.815   2.482  -6.338  0.00  0.00    +0.152 C 
ATOM     12  O   PRO A   2      11.688  -0.050  -6.699  0.00  0.00    -0.273 OA
BRANCH   6  15
ATOM     13  C   HIS A   1       9.223  -2.097  -7.459  0.00  0.00    +0.242 C 
ATOM     14  N   PRO A   2       9.864  -2.292  -6.280  0.00  0.00    -0.272 N 
ATOM     15  CA  PRO A   2      10.039  -1.161  -5.340  0.00  0.00    +0.152 C 
ATOM     16  CB  PRO A   2      10.905  -1.759  -4.215  0.00  0.00    +0.031 C 
ATOM     17  CG  PRO A   2      10.590  -3.250  -4.276  0.00  0.00    +0.024 C 
ATOM     18  CD  PRO A   2      10.477  -3.532  -5.749  0.00  0.00    +0.094 C 
ATOM     19  O   HIS A   1       8.744  -1.002  -7.734  0.00  0.00    -0.273 OA
BRANCH  13  20
ATOM     20  CA  HIS A   1       9.096  -3.286  -8.463  0.00  0.00    +0.151 C 
BRANCH  20  21
ATOM     21  N   HIS A   1       7.780  -3.918  -8.412  0.00  0.00    -0.238 NA
ATOM     22  H   HIS A   1       6.941  -3.310  -8.500  0.00  0.00    +0.142 HD
ENDBRANCH  20  21
BRANCH  20  23
ATOM     23  CB  HIS A   1       9.474  -2.890  -9.911  0.00  0.00    +0.074 C 
BRANCH  23  24
ATOM     24  CG  HIS A   1       9.409  -4.029 -10.894  0.00  0.00    +0.082 A 
ATOM     25  ND1 HIS A   1      10.433  -4.981 -10.982  0.00  0.00    -0.227 NA
ATOM     26  CE1 HIS A   1      10.057  -5.827 -11.931  0.00  0.00    +0.199 A 
ATOM     27  NE2 HIS A   1       8.862  -5.501 -12.437  0.00  0.00    -0.221 NA
ATOM     28  CD2 HIS A   1       8.443  -4.347 -11.795  0.00  0.00    +0.115 A 
ENDBRANCH  23  24
ENDBRANCH  20  23
ENDBRANCH  13  20
ENDBRANCH   6  15
ENDBRANCH   2  11
ENDBRANCH   1   4
BRANCH   1  29
ATOM     29  C   ASN A   4      13.661   5.797  -4.975  0.00  0.00    +0.241 C 
ATOM     30  N   ASP A   5      12.465   5.876  -4.351  0.00  0.00    -0.297 N 
ATOM     31  H   ASP A   5      11.883   5.016  -4.293  0.00  0.00    +0.150 HD
ATOM     32  O   ASN A   4      14.403   6.779  -5.109  0.00  0.00    -0.273 OA
BRANCH  30  33
ATOM     33  CA  ASP A   5      11.947   7.100  -3.756  0.00  0.00    +0.160 C 
BRANCH  33  34
ATOM     34  C   ASP A   5      12.768   7.507  -2.517  0.00  0.00    +0.241 C 
ATOM     35  O   ASP A   5      13.249   6.654  -1.766  0.00  0.00    -0.273 OA
ATOM     36  N   ALA A   6      12.982   8.825  -2.347  0.00  0.00    -0.297 N 
ATOM     37  H   ALA A   6      12.579   9.486  -3.041  0.00  0.00    +0.150 HD
BRANCH  36  38
ATOM     38  CA  ALA A   6      13.756   9.372  -1.230  0.00  0.00    +0.149 C 
ATOM     39  CB  ALA A   6      15.240   9.408  -1.586  0.00  0.00    +0.031 C 
BRANCH  38  40
ATOM     40  C   ALA A   6      13.230  10.767  -0.948  0.00  0.00    +0.241 C 
ATOM     41  N   LEU A   7      13.520  11.308   0.240  0.00  0.00    -0.297 N 
ATOM     42  H   LEU A   7      14.116  10.775   0.905  0.00  0.00    +0.150 HD
ATOM     43  O   ALA A   6      12.532  11.333  -1.786  0.00  0.00    -0.273 OA
BRANCH  41  44
ATOM     44  CA  LEU A   7      13.026  12.623   0.631  0.00  0.00    +0.149 C 
BRANCH  44  45
ATOM     45  C   LEU A   7      13.837  13.755  -0.029  0.00  0.00    +0.241 C 
ATOM     46  O   LEU A   7      14.842  14.233   0.503  0.00  0.00    -0.273 OA
ATOM     47  N   ALA A   8      13.379  14.125  -1.241  0.00  0.00    -0.298 N 
ATOM     48  H   ALA A   8      12.506  13.670  -1.577  0.00  0.00    +0.150 HD
BRANCH  47  49
ATOM     49  CA  ALA A   8      14.001  15.110  -2.125  0.00  0.00    +0.137 C 
ATOM     50  CB  ALA A   8      13.485  14.928  -3.550  0.00  0.00    +0.030 C 
BRANCH  49  51
ATOM     51  C   ALA A   8      13.826  16.559  -1.668  0.00  0.00    +0.227 C 
ATOM     52  O   ALA A   8      14.819  17.284  -1.613  0.00  0.00    -0.286 OA
ENDBRANCH  49  51
ENDBRANCH  47  49
ENDBRANCH  44  45
BRANCH  44  53
ATOM     53  CB  LEU A   7      12.911  12.748   2.153  0.00  0.00    +0.029 C 
BRANCH  53  54
ATOM     54  CG  LEU A   7      11.941  11.747   2.765  0.00  0.00    +0.002 C 
ATOM     55  CD2 LEU A   7      11.878  11.917   4.213  0.00  0.00    +0.000 C 
ATOM     56  CD1 LEU A   7      10.557  11.830   2.120  0.00  0.00    +0.000 C 
ENDBRANCH  53  54
ENDBRANCH  44  53
ENDBRANCH  41  44
ENDBRANCH  38  40
ENDBRANCH  36  38
ENDBRANCH  33  34
BRANCH  33  57
ATOM     57  CB  ASP A   5      10.481   6.907  -3.396  0.00  0.00    +0.143 C 
BRANCH  57  58
ATOM     58  CG  ASP A   5       9.681   8.176  -3.296  0.00  0.00    +0.367 C 
ATOM     59  OD2 ASP A   5       8.562   8.123  -2.765  0.00  0.00    -0.246 OA
ATOM     60  OD1 ASP A   5      10.141   9.205  -3.812  0.00  0.00    -0.246 OA
ENDBRANCH  57  58
ENDBRANCH  33  57
ENDBRANCH  30  33
ENDBRANCH   1  29
BRANCH   1  61
ATOM     61  CB  ASN A   4      15.221   4.522  -6.578  0.00  0.00    +0.114 C 
BRANCH  61  62
ATOM     62  CG  ASN A   4      14.809   4.790  -8.008  0.00  0.00    +0.222 C 
ATOM     63  ND2 ASN A   4      13.957   5.792  -8.237  0.00  0.00    -0.329 N 
ATOM     64 HD21 ASN A   4      13.588   6.353  -7.443  0.00  0.00    +0.145 HD
ATOM     65 HD22 ASN A   4      13.662   6.012  -9.210  0.00  0.00    +0.145 HD
ATOM     66  OD1 ASN A   4      15.264   4.106  -8.932  0.00  0.00    -0.275 OA
ENDBRANCH  61  62
ENDBRANCH   1  61
TORSDOF 22
REMARK  Name = ../refined-set-2016/5alb/5alb_pocket.pdb
REMARK  223 active torsions:
REMARK  status: ('A' for Active; 'I' for Inactive)
REMARK    1  A    between atoms: _1  and  _3
REMARK    2  A    between atoms: _3  and  _4
REMARK    3  A    between atoms: _3  and  _6
REMARK    4  A    between atoms: _6  and  _7
REMARK    5  A    between atoms: _12  and  _13
REMARK    6  A    between atoms: _15  and  _17
REMARK    7  A    between atoms: _17  and  _18
REMARK    8  A    between atoms: _17  and  _20
REMARK    9  A    between atoms: _20  and  _21
REMARK   10  A    between atoms: _23  and  _25
REMARK   11  A    between atoms: _25  and  _26
REMARK   12  A    between atoms: _25  and  _28
REMARK   13  A    between atoms: _28  and  _29
REMARK   14  A    between atoms: _32  and  _34
REMARK   15  A    between atoms: _34  and  _35
REMARK   16  A    between atoms: _34  and  _37
REMARK   17  A    between atoms: _37  and  _38
REMARK   18  A    between atoms: _43  and  _45
REMARK   19  A    between atoms: _45  and  _46
REMARK   20  A    between atoms: _45  and  _48
REMARK   21  A    between atoms: _48  and  _49
REMARK   22  A    between atoms: _59  and  _61
REMARK   23  A    between atoms: _61  and  _62
REMARK   24  A    between atoms: _61  and  _64
REMARK   25  A    between atoms: _67  and  _69
REMARK   26  A    between atoms: _69  and  _70
REMARK   27  A    between atoms: _69  and  _72
REMARK   28  A    between atoms: _72  and  _73
REMARK   29  A    between atoms: _76  and  _78
REMARK   30  A    between atoms: _78  and  _79
REMARK   31  A    between atoms: _78  and  _81
REMARK   32  A    between atoms: _81  and  _82
REMARK   33  A    between atoms: _82  and  _83
REMARK   34  A    between atoms: _86  and  _88
REMARK   35  A    between atoms: _88  and  _89
REMARK   36  A    between atoms: _88  and  _91
REMARK   37  A    between atoms: _91  and  _92
REMARK   38  A    between atoms: _102  and  _104
REMARK   39  A    between atoms: _104  and  _105
REMARK   40  A    between atoms: _104  and  _107
REMARK   41  A    between atoms: _107  and  _108
REMARK   42  A    between atoms: _108  and  _109
REMARK   43  A    between atoms: _111  and  _113
REMARK   44  A    between atoms: _113  and  _114
REMARK   45  A    between atoms: _116  and  _118
REMARK   46  A    between atoms: _118  and  _119
REMARK   47  A    between atoms: _121  and  _123
REMARK   48  A    between atoms: _123  and  _124
REMARK   49  A    between atoms: _123  and  _126
REMARK   50  A    between atoms: _126  and  _127
REMARK   51  A    between atoms: _130  and  _132
REMARK   52  A    between atoms: _132  and  _133
REMARK   53  A    between atoms: _132  and  _135
REMARK   54  A    between atoms: _135  and  _136
REMARK   55  A    between atoms: _140  and  _141
REMARK   56  A    between atoms: _146  and  _148
REMARK   57  A    between atoms: _148  and  _149
REMARK   58  A    between atoms: _148  and  _151
REMARK   59  A    between atoms: _151  and  _152
REMARK   60  A    between atoms: _158  and  _160
REMARK   61  A    between atoms: _160  and  _161
REMARK   62  A    between atoms: _163  and  _165
REMARK   63  A    between atoms: _165  and  _166
REMARK   64  A    between atoms: _165  and  _168
REMARK   65  A    between atoms: _168  and  _169
REMARK   66  A    between atoms: _172  and  _174
REMARK   67  A    between atoms: _174  and  _175
REMARK   68  A    between atoms: _174  and  _177
REMARK   69  A    between atoms: _177  and  _178
REMARK   70  A    between atoms: _181  and  _183
REMARK   71  A    between atoms: _183  and  _184
REMARK   72  A    between atoms: _183  and  _186
REMARK   73  A    between atoms: _186  and  _187
REMARK   74  A    between atoms: _189  and  _191
REMARK   75  A    between atoms: _191  and  _192
REMARK   76  A    between atoms: _191  and  _194
REMARK   77  A    between atoms: _194  and  _195
REMARK   78  A    between atoms: _197  and  _199
REMARK   79  A    between atoms: _199  and  _200
REMARK   80  A    between atoms: _203  and  _205
REMARK   81  A    between atoms: _205  and  _206
REMARK   82  A    between atoms: _205  and  _208
REMARK   83  A    between atoms: _208  and  _209
REMARK   84  A    between atoms: _209  and  _210
REMARK   85  A    between atoms: _210  and  _211
REMARK   86  A    between atoms: _220  and  _222
REMARK   87  A    between atoms: _222  and  _223
REMARK   88  A    between atoms: _225  and  _227
REMARK   89  A    between atoms: _227  and  _228
REMARK   90  A    between atoms: _227  and  _230
REMARK   91  A    between atoms: _230  and  _231
REMARK   92  A    between atoms: _233  and  _235
REMARK   93  A    between atoms: _235  and  _236
REMARK   94  A    between atoms: _235  and  _238
REMARK   95  A    between atoms: _238  and  _239
REMARK   96  A    between atoms: _245  and  _247
REMARK   97  A    between atoms: _247  and  _248
REMARK   98  A    between atoms: _247  and  _250
REMARK   99  A    between atoms: _250  and  _251
REMARK  100  A    between atoms: _256  and  _257
REMARK  101  A    between atoms: _259  and  _261
REMARK  102  A    between atoms: _261  and  _262
REMARK  103  A    between atoms: _261  and  _264
REMARK  104  A    between atoms: _264  and  _265
REMARK  105  A    between atoms: _275  and  _277
REMARK  106  A    between atoms: _277  and  _278
REMARK  107  A    between atoms: _281  and  _283
REMARK  108  A    between atoms: _283  and  _284
REMARK  109  A    between atoms: _283  and  _286
REMARK  110  A    between atoms: _286  and  _287
REMARK  111  A    between atoms: _293  and  _294
REMARK  112  A    between atoms: _300  and  _301
REMARK  113  A    between atoms: _306  and  _308
REMARK  114  A    between atoms: _308  and  _309
REMARK  115  A    between atoms: _308  and  _311
REMARK  116  A    between atoms: _311  and  _312
REMARK  117  A    between atoms: _317  and  _319
REMARK  118  A    between atoms: _319  and  _320
REMARK  119  A    between atoms: _319  and  _322
REMARK  120  A    between atoms: _322  and  _323
REMARK  121  A    between atoms: _326  and  _328
REMARK  122  A    between atoms: _328  and  _329
REMARK  123  A    between atoms: _332  and  _334
REMARK  124  A    between atoms: _334  and  _335
REMARK  125  A    between atoms: _334  and  _337
REMARK  126  A    between atoms: _337  and  _338
REMARK  127  A    between atoms: _341  and  _343
REMARK  128  A    between atoms: _343  and  _344
REMARK  129  A    between atoms: _347  and  _349
REMARK  130  A    between atoms: _349  and  _350
REMARK  131  A    between atoms: _349  and  _352
REMARK  132  A    between atoms: _352  and  _353
REMARK  133  A    between atoms: _363  and  _365
REMARK  134  A    between atoms: _365  and  _366
REMARK  135  A    between atoms: _365  and  _368
REMARK  136  A    between atoms: _368  and  _369
REMARK  137  A    between atoms: _374  and  _376
REMARK  138  A    between atoms: _376  and  _377
REMARK  139  A    between atoms: _376  and  _379
REMARK  140  A    between atoms: _379  and  _380
REMARK  141  A    between atoms: _385  and  _386
REMARK  142  A    between atoms: _388  and  _390
REMARK  143  A    between atoms: _390  and  _391
REMARK  144  A    between atoms: _390  and  _393
REMARK  145  A    between atoms: _396  and  _398
REMARK  146  A    between atoms: _398  and  _399
REMARK  147  A    between atoms: _398  and  _401
REMARK  148  A    between atoms: _401  and  _402
REMARK  149  A    between atoms: _404  and  _406
REMARK  150  A    between atoms: _406  and  _407
REMARK  151  A    between atoms: _406  and  _409
REMARK  152  A    between atoms: _409  and  _410
REMARK  153  A    between atoms: _420  and  _422
REMARK  154  A    between atoms: _422  and  _423
REMARK  155  A    between atoms: _422  and  _425
REMARK  156  A    between atoms: _425  and  _426
REMARK  157  A    between atoms: _431  and  _432
REMARK  158  A    between atoms: _434  and  _436
REMARK  159  A    between atoms: _436  and  _437
REMARK  160  A    between atoms: _436  and  _439
REMARK  161  A    between atoms: _439  and  _440
REMARK  162  A    between atoms: _443  and  _445
REMARK  163  A    between atoms: _445  and  _446
REMARK  164  A    between atoms: _445  and  _448
REMARK  165  A    between atoms: _448  and  _449
REMARK  166  A    between atoms: _452  and  _454
REMARK  167  A    between atoms: _454  and  _455
REMARK  168  A    between atoms: _454  and  _457
REMARK  169  A    between atoms: _457  and  _458
REMARK  170  A    between atoms: _461  and  _463
REMARK  171  A    between atoms: _463  and  _464
REMARK  172  A    between atoms: _463  and  _466
REMARK  173  A    between atoms: _466  and  _467
REMARK  174  A    between atoms: _472  and  _473
REMARK  175  A    between atoms: _475  and  _477
REMARK  176  A    between atoms: _477  and  _478
REMARK  177  A    between atoms: _477  and  _480
REMARK  178  A    between atoms: _482  and  _484
REMARK  179  A    between atoms: _484  and  _485
REMARK  180  A    between atoms: _487  and  _489
REMARK  181  A    between atoms: _489  and  _490
REMARK  182  A    between atoms: _489  and  _492
REMARK  183  A    between atoms: _492  and  _493
REMARK  184  A    between atoms: _496  and  _498
REMARK  185  A    between atoms: _498  and  _499
REMARK  186  A    between atoms: _498  and  _501
REMARK  187  A    between atoms: _501  and  _502
REMARK  188  A    between atoms: _512  and  _514
REMARK  189  A    between atoms: _514  and  _515
REMARK  190  A    between atoms: _514  and  _517
REMARK  191  A    between atoms: _517  and  _518
REMARK  192  A    between atoms: _521  and  _523
REMARK  193  A    between atoms: _523  and  _524
REMARK  194  A    between atoms: _523  and  _526
REMARK  195  A    between atoms: _526  and  _527
REMARK  196  A    between atoms: _532  and  _533
REMARK  197  A    between atoms: _535  and  _537
REMARK  198  A    between atoms: _537  and  _538
REMARK  199  A    between atoms: _537  and  _540
REMARK  200  A    between atoms: _540  and  _541
REMARK  201  A    between atoms: _544  and  _546
REMARK  202  A    between atoms: _546  and  _547
REMARK  203  A    between atoms: _546  and  _549
REMARK  204  A    between atoms: _549  and  _550
REMARK  205  A    between atoms: _550  and  _551
REMARK  206  A    between atoms: _551  and  _552
REMARK  207  A    between atoms: _561  and  _563
REMARK  208  A    between atoms: _563  and  _564
REMARK  209  A    between atoms: _567  and  _569
REMARK  210  A    between atoms: _569  and  _570
REMARK  211  A    between atoms: _569  and  _572
REMARK  212  A    between atoms: _575  and  _577
REMARK  213  A    between atoms: _577  and  _578
REMARK  214  A    between atoms: _580  and  _582
REMARK  215  A    between atoms: _582  and  _583
REMARK  216  A    between atoms: _582  and  _585
REMARK  217  A    between atoms: _585  and  _586
REMARK  218  A    between atoms: _589  and  _591
REMARK  219  A    between atoms: _591  and  _592
REMARK  220  A    between atoms: _591  and  _594
REMARK  221  A    between atoms: _594  and  _595
REMARK  222  A    between atoms: _601  and  _603
REMARK  223  A    between atoms: _603  and  _604
REMARK                            x       y       z     vdW  Elec       q    Type
REMARK                         _______ _______ _______ _____ _____    ______ ____
ROOT
ATOM      1  CG  TRP A   1      13.487  17.706   3.631  0.00  0.00    -0.002 A 
ATOM      2  CD2 TRP A   1      13.476  16.776   4.727  0.00  0.00    +0.013 A 
ATOM      3  CE3 TRP A   1      12.911  16.792   6.014  0.00  0.00    +0.001 A 
ATOM      4  CZ3 TRP A   1      13.002  15.650   6.796  0.00  0.00    +0.000 A 
ATOM      5  CH2 TRP A   1      13.687  14.510   6.341  0.00  0.00    +0.001 A 
ATOM      6  CZ2 TRP A   1      14.302  14.483   5.110  0.00  0.00    +0.017 A 
ATOM      7  CE2 TRP A   1      14.162  15.615   4.298  0.00  0.00    +0.056 A 
ATOM      8  NE1 TRP A   1      14.650  15.872   3.046  0.00  0.00    -0.352 N 
ATOM      9  HE1 TRP A   1      15.234  15.223   2.481  0.00  0.00    +0.166 HD
ATOM     10  CD1 TRP A   1      14.242  17.131   2.653  0.00  0.00    +0.068 A 
ENDROOT
BRANCH   1  11
ATOM     11  CB  TRP A   1      12.969  19.114   3.652  0.00  0.00    +0.053 C 
BRANCH  11  12
ATOM     12  CA  TRP A   1      11.810  19.411   2.673  0.00  0.00    +0.137 C 
BRANCH  12  13
ATOM     13  N   TRP A   1      12.260  19.297   1.301  0.00  0.00    -0.239 NA
ATOM     14  H   TRP A   1      13.022  19.917   0.961  0.00  0.00    +0.142 HD
ENDBRANCH  12  13
BRANCH  12  15
ATOM     15  C   TRP A   1      11.248  20.786   2.994  0.00  0.00    +0.224 C 
ATOM     16  O   TRP A   1      11.742  21.786   2.488  0.00  0.00    -0.287 OA
ENDBRANCH  12  15
ENDBRANCH  11  12
ENDBRANCH   1  11
TORSDOF 4
REMARK  Name = ../refined-set-2016/5alb/5alb_pocket.pdb
REMARK  223 active torsions:
REMARK  status: ('A' for Active; 'I' for Inactive)
REMARK    1  A    between atoms: _1  and  _3
REMARK    2  A    between atoms: _3  and  _4
REMARK    3  A    between atoms: _3  and  _6
REMARK    4  A    between atoms: _6  and  _7
REMARK    5  A    between atoms: _12  and  _13
REMARK    6  A    between atoms: _15  and  _17
REMARK    7  A    between atoms: _17  and  _18
REMARK    8  A    between atoms: _17  and  _20
REMARK    9  A    between atoms: _20  and  _21
REMARK   10  A    between atoms: _23  and  _25
REMARK   11  A    between atoms: _25  and  _26
REMARK   12  A    between atoms: _25  and  _28
REMARK   13  A    between atoms: _28  and  _29
REMARK   14  A    between atoms: _32  and  _34
REMARK   15  A    between atoms: _34  and  _35
REMARK   16  A    between atoms: _34  and  _37
REMARK   17  A    between atoms: _37  and  _38
REMARK   18  A    between atoms: _43  and  _45
REMARK   19  A    between atoms: _45  and  _46
REMARK   20  A    between atoms: _45  and  _48
REMARK   21  A    between atoms: _48  and  _49
REMARK   22  A    between atoms: _59  and  _61
REMARK   23  A    between atoms: _61  and  _62
REMARK   24  A    between atoms: _61  and  _64
REMARK   25  A    between atoms: _67  and  _69
REMARK   26  A    between atoms: _69  and  _70
REMARK   27  A    between atoms: _69  and  _72
REMARK   28  A    between atoms: _72  and  _73
REMARK   29  A    between atoms: _76  and  _78
REMARK   30  A    between atoms: _78  and  _79
REMARK   31  A    between atoms: _78  and  _81
REMARK   32  A    between atoms: _81  and  _82
REMARK   33  A    between atoms: _82  and  _83
REMARK   34  A    between atoms: _86  and  _88
REMARK   35  A    between atoms: _88  and  _89
REMARK   36  A    between atoms: _88  and  _91
REMARK   37  A    between atoms: _91  and  _92
REMARK   38  A    between atoms: _102  and  _104
REMARK   39  A    between atoms: _104  and  _105
REMARK   40  A    between atoms: _104  and  _107
REMARK   41  A    between atoms: _107  and  _108
REMARK   42  A    between atoms: _108  and  _109
REMARK   43  A    between atoms: _111  and  _113
REMARK   44  A    between atoms: _113  and  _114
REMARK   45  A    between atoms: _116  and  _118
REMARK   46  A    between atoms: _118  and  _119
REMARK   47  A    between atoms: _121  and  _123
REMARK   48  A    between atoms: _123  and  _124
REMARK   49  A    between atoms: _123  and  _126
REMARK   50  A    between atoms: _126  and  _127
REMARK   51  A    between atoms: _130  and  _132
REMARK   52  A    between atoms: _132  and  _133
REMARK   53  A    between atoms: _132  and  _135
REMARK   54  A    between atoms: _135  and  _136
REMARK   55  A    between atoms: _140  and  _141
REMARK   56  A    between atoms: _146  and  _148
REMARK   57  A    between atoms: _148  and  _149
REMARK   58  A    between atoms: _148  and  _151
REMARK   59  A    between atoms: _151  and  _152
REMARK   60  A    between atoms: _158  and  _160
REMARK   61  A    between atoms: _160  and  _161
REMARK   62  A    between atoms: _163  and  _165
REMARK   63  A    between atoms: _165  and  _166
REMARK   64  A    between atoms: _165  and  _168
REMARK   65  A    between atoms: _168  and  _169
REMARK   66  A    between atoms: _172  and  _174
REMARK   67  A    between atoms: _174  and  _175
REMARK   68  A    between atoms: _174  and  _177
REMARK   69  A    between atoms: _177  and  _178
REMARK   70  A    between atoms: _181  and  _183
REMARK   71  A    between atoms: _183  and  _184
REMARK   72  A    between atoms: _183  and  _186
REMARK   73  A    between atoms: _186  and  _187
REMARK   74  A    between atoms: _189  and  _191
REMARK   75  A    between atoms: _191  and  _192
REMARK   76  A    between atoms: _191  and  _194
REMARK   77  A    between atoms: _194  and  _195
REMARK   78  A    between atoms: _197  and  _199
REMARK   79  A    between atoms: _199  and  _200
REMARK   80  A    between atoms: _203  and  _205
REMARK   81  A    between atoms: _205  and  _206
REMARK   82  A    between atoms: _205  and  _208
REMARK   83  A    between atoms: _208  and  _209
REMARK   84  A    between atoms: _209  and  _210
REMARK   85  A    between atoms: _210  and  _211
REMARK   86  A    between atoms: _220  and  _222
REMARK   87  A    between atoms: _222  and  _223
REMARK   88  A    between atoms: _225  and  _227
REMARK   89  A    between atoms: _227  and  _228
REMARK   90  A    between atoms: _227  and  _230
REMARK   91  A    between atoms: _230  and  _231
REMARK   92  A    between atoms: _233  and  _235
REMARK   93  A    between atoms: _235  and  _236
REMARK   94  A    between atoms: _235  and  _238
REMARK   95  A    between atoms: _238  and  _239
REMARK   96  A    between atoms: _245  and  _247
REMARK   97  A    between atoms: _247  and  _248
REMARK   98  A    between atoms: _247  and  _250
REMARK   99  A    between atoms: _250  and  _251
REMARK  100  A    between atoms: _256  and  _257
REMARK  101  A    between atoms: _259  and  _261
REMARK  102  A    between atoms: _261  and  _262
REMARK  103  A    between atoms: _261  and  _264
REMARK  104  A    between atoms: _264  and  _265
REMARK  105  A    between atoms: _275  and  _277
REMARK  106  A    between atoms: _277  and  _278
REMARK  107  A    between atoms: _281  and  _283
REMARK  108  A    between atoms: _283  and  _284
REMARK  109  A    between atoms: _283  and  _286
REMARK  110  A    between atoms: _286  and  _287
REMARK  111  A    between atoms: _293  and  _294
REMARK  112  A    between atoms: _300  and  _301
REMARK  113  A    between atoms: _306  and  _308
REMARK  114  A    between atoms: _308  and  _309
REMARK  115  A    between atoms: _308  and  _311
REMARK  116  A    between atoms: _311  and  _312
REMARK  117  A    between atoms: _317  and  _319
REMARK  118  A    between atoms: _319  and  _320
REMARK  119  A    between atoms: _319  and  _322
REMARK  120  A    between atoms: _322  and  _323
REMARK  121  A    between atoms: _326  and  _328
REMARK  122  A    between atoms: _328  and  _329
REMARK  123  A    between atoms: _332  and  _334
REMARK  124  A    between atoms: _334  and  _335
REMARK  125  A    between atoms: _334  and  _337
REMARK  126  A    between atoms: _337  and  _338
REMARK  127  A    between atoms: _341  and  _343
REMARK  128  A    between atoms: _343  and  _344
REMARK  129  A    between atoms: _347  and  _349
REMARK  130  A    between atoms: _349  and  _350
REMARK  131  A    between atoms: _349  and  _352
REMARK  132  A    between atoms: _352  and  _353
REMARK  133  A    between atoms: _363  and  _365
REMARK  134  A    between atoms: _365  and  _366
REMARK  135  A    between atoms: _365  and  _368
REMARK  136  A    between atoms: _368  and  _369
REMARK  137  A    between atoms: _374  and  _376
REMARK  138  A    between atoms: _376  and  _377
REMARK  139  A    between atoms: _376  and  _379
REMARK  140  A    between atoms: _379  and  _380
REMARK  141  A    between atoms: _385  and  _386
REMARK  142  A    between atoms: _388  and  _390
REMARK  143  A    between atoms: _390  and  _391
REMARK  144  A    between atoms: _390  and  _393
REMARK  145  A    between atoms: _396  and  _398
REMARK  146  A    between atoms: _398  and  _399
REMARK  147  A    between atoms: _398  and  _401
REMARK  148  A    between atoms: _401  and  _402
REMARK  149  A    between atoms: _404  and  _406
REMARK  150  A    between atoms: _406  and  _407
REMARK  151  A    between atoms: _406  and  _409
REMARK  152  A    between atoms: _409  and  _410
REMARK  153  A    between atoms: _420  and  _422
REMARK  154  A    between atoms: _422  and  _423
REMARK  155  A    between atoms: _422  and  _425
REMARK  156  A    between atoms: _425  and  _426
REMARK  157  A    between atoms: _431  and  _432
REMARK  158  A    between atoms: _434  and  _436
REMARK  159  A    between atoms: _436  and  _437
REMARK  160  A    between atoms: _436  and  _439
REMARK  161  A    between atoms: _439  and  _440
REMARK  162  A    between atoms: _443  and  _445
REMARK  163  A    between atoms: _445  and  _446
REMARK  164  A    between atoms: _445  and  _448
REMARK  165  A    between atoms: _448  and  _449
REMARK  166  A    between atoms: _452  and  _454
REMARK  167  A    between atoms: _454  and  _455
REMARK  168  A    between atoms: _454  and  _457
REMARK  169  A    between atoms: _457  and  _458
REMARK  170  A    between atoms: _461  and  _463
REMARK  171  A    between atoms: _463  and  _464
REMARK  172  A    between atoms: _463  and  _466
REMARK  173  A    between atoms: _466  and  _467
REMARK  174  A    between atoms: _472  and  _473
REMARK  175  A    between atoms: _475  and  _477
REMARK  176  A    between atoms: _477  and  _478
REMARK  177  A    between atoms: _477  and  _480
REMARK  178  A    between atoms: _482  and  _484
REMARK  179  A    between atoms: _484  and  _485
REMARK  180  A    between atoms: _487  and  _489
REMARK  181  A    between atoms: _489  and  _490
REMARK  182  A    between atoms: _489  and  _492
REMARK  183  A    between atoms: _492  and  _493
REMARK  184  A    between atoms: _496  and  _498
REMARK  185  A    between atoms: _498  and  _499
REMARK  186  A    between atoms: _498  and  _501
REMARK  187  A    between atoms: _501  and  _502
REMARK  188  A    between atoms: _512  and  _514
REMARK  189  A    between atoms: _514  and  _515
REMARK  190  A    between atoms: _514  and  _517
REMARK  191  A    between atoms: _517  and  _518
REMARK  192  A    between atoms: _521  and  _523
REMARK  193  A    between atoms: _523  and  _524
REMARK  194  A    between atoms: _523  and  _526
REMARK  195  A    between atoms: _526  and  _527
REMARK  196  A    between atoms: _532  and  _533
REMARK  197  A    between atoms: _535  and  _537
REMARK  198  A    between atoms: _537  and  _538
REMARK  199  A    between atoms: _537  and  _540
REMARK  200  A    between atoms: _540  and  _541
REMARK  201  A    between atoms: _544  and  _546
REMARK  202  A    between atoms: _546  and  _547
REMARK  203  A    between atoms: _546  and  _549
REMARK  204  A    between atoms: _549  and  _550
REMARK  205  A    between atoms: _550  and  _551
REMARK  206  A    between atoms: _551  and  _552
REMARK  207  A    between atoms: _561  and  _563
REMARK  208  A    between atoms: _563  and  _564
REMARK  209  A    between atoms: _567  and  _569
REMARK  210  A    between atoms: _569  and  _570
REMARK  211  A    between atoms: _569  and  _572
REMARK  212  A    between atoms: _575  and  _577
REMARK  213  A    between atoms: _577  and  _578
REMARK  214  A    between atoms: _580  and  _582
REMARK  215  A    between atoms: _582  and  _583
REMARK  216  A    between atoms: _582  and  _585
REMARK  217  A    between atoms: _585  and  _586
REMARK  218  A    between atoms: _589  and  _591
REMARK  219  A    between atoms: _591  and  _592
REMARK  220  A    between atoms: _591  and  _594
REMARK  221  A    between atoms: _594  and  _595
REMARK  222  A    between atoms: _601  and  _603
REMARK  223  A    between atoms: _603  and  _604
REMARK                            x       y       z     vdW  Elec       q    Type
REMARK                         _______ _______ _______ _____ _____    ______ ____
ROOT
ATOM      1  CA  SER A   4      19.245   7.152   1.238  0.00  0.00    +0.178 C 
ENDROOT
BRANCH   1   3
ATOM      2  C   VAL A   3      19.489   4.699   1.009  0.00  0.00    +0.241 C 
ATOM      3  N   SER A   4      19.016   5.770   1.631  0.00  0.00    -0.295 N 
ATOM      4  H   SER A   4      18.429   5.608   2.474  0.00  0.00    +0.150 HD
ATOM      5  O   VAL A   3      20.059   4.744  -0.087  0.00  0.00    -0.273 OA
BRANCH   2   6
ATOM      6  CA  VAL A   3      19.171   3.374   1.685  0.00  0.00    +0.149 C 
BRANCH   6   9
ATOM      7  C   TYR A   2      17.467   2.037   0.542  0.00  0.00    +0.241 C 
ATOM      8  O   TYR A   2      16.540   2.486   1.237  0.00  0.00    -0.273 OA
ATOM      9  N   VAL A   3      18.743   2.425   0.678  0.00  0.00    -0.297 N 
ATOM     10  H   VAL A   3      19.456   2.028   0.033  0.00  0.00    +0.150 HD
BRANCH   7  11
ATOM     11  CA  TYR A   2      17.187   1.080  -0.612  0.00  0.00    +0.153 C 
BRANCH  11  14
ATOM     12  C   ASN A   1      16.680  -1.089   0.542  0.00  0.00    +0.239 C 
ATOM     13  O   ASN A   1      17.831  -1.283   0.907  0.00  0.00    -0.274 OA
ATOM     14  N   TYR A   2      16.307  -0.015  -0.189  0.00  0.00    -0.297 N 
ATOM     15  H   TYR A   2      15.309   0.040  -0.477  0.00  0.00    +0.150 HD
BRANCH  12  16
ATOM     16  CA  ASN A   1      15.584  -2.116   0.890  0.00  0.00    +0.154 C 
BRANCH  16  17
ATOM     17  N   ASN A   1      16.049  -3.385   1.477  0.00  0.00    -0.238 NA
ATOM     18  H   ASN A   1      16.714  -3.375   2.276  0.00  0.00    +0.142 HD
ENDBRANCH  16  17
BRANCH  16  19
ATOM     19  CB  ASN A   1      14.534  -1.494   1.820  0.00  0.00    +0.111 C 
BRANCH  19  20
ATOM     20  CG  ASN A   1      13.285  -2.340   1.921  0.00  0.00    +0.221 C 
ATOM     21  ND2 ASN A   1      13.124  -3.005   3.055  0.00  0.00    -0.329 N 
ATOM     22 HD21 ASN A   1      13.792  -2.865   3.839  0.00  0.00    +0.145 HD
ATOM     23 HD22 ASN A   1      12.329  -3.667   3.161  0.00  0.00    +0.145 HD
ATOM     24  OD1 ASN A   1      12.514  -2.474   0.958  0.00  0.00    -0.275 OA
ENDBRANCH  19  20
ENDBRANCH  16  19
ENDBRANCH  12  16
ENDBRANCH  11  14
BRANCH  11  25
ATOM     25  CB  TYR A   2      16.564   1.924  -1.751  0.00  0.00    +0.055 C 
BRANCH  25  26
ATOM     26  CG  TYR A   2      16.354   1.242  -3.083  0.00  0.00    -0.020 A 
ATOM     27  CD2 TYR A   2      15.111   1.270  -3.713  0.00  0.00    -0.001 A 
ATOM     28  CE2 TYR A   2      14.920   0.689  -4.968  0.00  0.00    +0.036 A 
ATOM     29  CZ  TYR A   2      15.988   0.096  -5.623  0.00  0.00    +0.134 A 
ATOM     30  CE1 TYR A   2      17.240   0.075  -5.025  0.00  0.00    +0.036 A 
ATOM     31  CD1 TYR A   2      17.424   0.682  -3.780  0.00  0.00    -0.001 A 
BRANCH  29  32
ATOM     32  OH  TYR A   2      15.801  -0.486  -6.855  0.00  0.00    -0.506 OA
ATOM     33  HH  TYR A   2      16.660  -0.858  -7.177  0.00  0.00    +0.292 HD
ENDBRANCH  29  32
ENDBRANCH  25  26
ENDBRANCH  11  25
ENDBRANCH   7  11
ENDBRANCH   6   9
BRANCH   6  34
ATOM     34  CB  VAL A   3      20.294   2.817   2.610  0.00  0.00    +0.027 C 
ATOM     35  CG2 VAL A   3      20.808   3.859   3.609  0.00  0.00    +0.002 C 
ATOM     36  CG1 VAL A   3      21.434   2.232   1.803  0.00  0.00    +0.002 C 
ENDBRANCH   6  34
ENDBRANCH   2   6
ENDBRANCH   1   3
BRANCH   1  37
ATOM     37  C   SER A   4      19.980   7.875   2.385  0.00  0.00    +0.243 C 
ATOM     38  O   SER A   4      19.877   7.478   3.544  0.00  0.00    -0.273 OA
ATOM     39  N   TRP A   5      20.757   8.898   2.047  0.00  0.00    -0.297 N 
ATOM     40  H   TRP A   5      20.807   9.156   1.041  0.00  0.00    +0.150 HD
BRANCH  39  41
ATOM     41  CA  TRP A   5      21.547   9.686   2.992  0.00  0.00    +0.153 C 
BRANCH  41  42
ATOM     42  C   TRP A   5      21.127  11.130   3.071  0.00  0.00    +0.241 C 
ATOM     43  N   TYR A   6      21.066  11.667   4.306  0.00  0.00    -0.298 N 
ATOM     44  H   TYR A   6      21.343  11.079   5.118  0.00  0.00    +0.150 HD
ATOM     45  O   TRP A   5      20.841  11.751   2.051  0.00  0.00    -0.273 OA
BRANCH  43  46
ATOM     46  CA  TYR A   6      20.626  13.047   4.556  0.00  0.00    +0.141 C 
BRANCH  46  47
ATOM     47  C   TYR A   6      21.613  13.839   5.365  0.00  0.00    +0.227 C 
ATOM     48  O   TYR A   6      22.200  13.306   6.292  0.00  0.00    -0.286 OA
ENDBRANCH  46  47
BRANCH  46  49
ATOM     49  CB  TYR A   6      19.226  13.077   5.186  0.00  0.00    +0.054 C 
BRANCH  49  50
ATOM     50  CG  TYR A   6      18.218  12.312   4.351  0.00  0.00    -0.020 A 
ATOM     51  CD2 TYR A   6      18.031  10.941   4.530  0.00  0.00    -0.001 A 
ATOM     52  CE2 TYR A   6      17.141  10.226   3.741  0.00  0.00    +0.036 A 
ATOM     53  CZ  TYR A   6      16.441  10.873   2.744  0.00  0.00    +0.134 A 
ATOM     54  CE1 TYR A   6      16.602  12.235   2.542  0.00  0.00    +0.036 A 
ATOM     55  CD1 TYR A   6      17.490  12.947   3.346  0.00  0.00    -0.001 A 
BRANCH  53  56
ATOM     56  OH  TYR A   6      15.564  10.159   1.997  0.00  0.00    -0.506 OA
ATOM     57  HH  TYR A   6      15.585   9.211   2.281  0.00  0.00    +0.292 HD
ENDBRANCH  53  56
ENDBRANCH  49  50
ENDBRANCH  46  49
ENDBRANCH  43  46
ENDBRANCH  41  42
BRANCH  41  58
ATOM     58  CB  TRP A   5      23.021   9.556   2.665  0.00  0.00    +0.057 C 
BRANCH  58  59
ATOM     59  CG  TRP A   5      23.528   8.176   2.934  0.00  0.00    -0.002 A 
ATOM     60  CD2 TRP A   5      24.000   7.674   4.183  0.00  0.00    +0.013 A 
ATOM     61  CE3 TRP A   5      24.168   8.236   5.457  0.00  0.00    +0.001 A 
ATOM     62  CZ3 TRP A   5      24.663   7.437   6.478  0.00  0.00    +0.000 A 
ATOM     63  CH2 TRP A   5      25.042   6.107   6.239  0.00  0.00    +0.001 A 
ATOM     64  CZ2 TRP A   5      24.872   5.519   5.009  0.00  0.00    +0.017 A 
ATOM     65  CE2 TRP A   5      24.326   6.310   3.990  0.00  0.00    +0.056 A 
ATOM     66  NE1 TRP A   5      24.063   6.012   2.680  0.00  0.00    -0.352 N 
ATOM     67  HE1 TRP A   5      24.201   5.084   2.232  0.00  0.00    +0.166 HD
ATOM     68  CD1 TRP A   5      23.588   7.137   2.054  0.00  0.00    +0.068 A 
ENDBRANCH  58  59
ENDBRANCH  41  58
ENDBRANCH  39  41
ENDBRANCH   1  37
BRANCH   1  69
ATOM     69  CB  SER A   4      17.940   7.846   0.855  0.00  0.00    +0.166 C 
BRANCH  69  70
ATOM     70  OG  SER A   4      16.906   7.650   1.806  0.00  0.00    -0.380 OA
ATOM     71  H   SER A   4      16.718   6.682   1.892  0.00  0.00    +0.211 HD
ENDBRANCH  69  70
ENDBRANCH   1  69
TORSDOF 25
REMARK  Name = ../refined-set-2016/5alb/5alb_pocket.pdb
REMARK  223 active torsions:
REMARK  status: ('A' for Active; 'I' for Inactive)
REMARK    1  A    between atoms: _1  and  _3
REMARK    2  A    between atoms: _3  and  _4
REMARK    3  A    between atoms: _3  and  _6
REMARK    4  A    between atoms: _6  and  _7
REMARK    5  A    between atoms: _12  and  _13
REMARK    6  A    between atoms: _15  and  _17
REMARK    7  A    between atoms: _17  and  _18
REMARK    8  A    between atoms: _17  and  _20
REMARK    9  A    between atoms: _20  and  _21
REMARK   10  A    between atoms: _23  and  _25
REMARK   11  A    between atoms: _25  and  _26
REMARK   12  A    between atoms: _25  and  _28
REMARK   13  A    between atoms: _28  and  _29
REMARK   14  A    between atoms: _32  and  _34
REMARK   15  A    between atoms: _34  and  _35
REMARK   16  A    between atoms: _34  and  _37
REMARK   17  A    between atoms: _37  and  _38
REMARK   18  A    between atoms: _43  and  _45
REMARK   19  A    between atoms: _45  and  _46
REMARK   20  A    between atoms: _45  and  _48
REMARK   21  A    between atoms: _48  and  _49
REMARK   22  A    between atoms: _59  and  _61
REMARK   23  A    between atoms: _61  and  _62
REMARK   24  A    between atoms: _61  and  _64
REMARK   25  A    between atoms: _67  and  _69
REMARK   26  A    between atoms: _69  and  _70
REMARK   27  A    between atoms: _69  and  _72
REMARK   28  A    between atoms: _72  and  _73
REMARK   29  A    between atoms: _76  and  _78
REMARK   30  A    between atoms: _78  and  _79
REMARK   31  A    between atoms: _78  and  _81
REMARK   32  A    between atoms: _81  and  _82
REMARK   33  A    between atoms: _82  and  _83
REMARK   34  A    between atoms: _86  and  _88
REMARK   35  A    between atoms: _88  and  _89
REMARK   36  A    between atoms: _88  and  _91
REMARK   37  A    between atoms: _91  and  _92
REMARK   38  A    between atoms: _102  and  _104
REMARK   39  A    between atoms: _104  and  _105
REMARK   40  A    between atoms: _104  and  _107
REMARK   41  A    between atoms: _107  and  _108
REMARK   42  A    between atoms: _108  and  _109
REMARK   43  A    between atoms: _111  and  _113
REMARK   44  A    between atoms: _113  and  _114
REMARK   45  A    between atoms: _116  and  _118
REMARK   46  A    between atoms: _118  and  _119
REMARK   47  A    between atoms: _121  and  _123
REMARK   48  A    between atoms: _123  and  _124
REMARK   49  A    between atoms: _123  and  _126
REMARK   50  A    between atoms: _126  and  _127
REMARK   51  A    between atoms: _130  and  _132
REMARK   52  A    between atoms: _132  and  _133
REMARK   53  A    between atoms: _132  and  _135
REMARK   54  A    between atoms: _135  and  _136
REMARK   55  A    between atoms: _140  and  _141
REMARK   56  A    between atoms: _146  and  _148
REMARK   57  A    between atoms: _148  and  _149
REMARK   58  A    between atoms: _148  and  _151
REMARK   59  A    between atoms: _151  and  _152
REMARK   60  A    between atoms: _158  and  _160
REMARK   61  A    between atoms: _160  and  _161
REMARK   62  A    between atoms: _163  and  _165
REMARK   63  A    between atoms: _165  and  _166
REMARK   64  A    between atoms: _165  and  _168
REMARK   65  A    between atoms: _168  and  _169
REMARK   66  A    between atoms: _172  and  _174
REMARK   67  A    between atoms: _174  and  _175
REMARK   68  A    between atoms: _174  and  _177
REMARK   69  A    between atoms: _177  and  _178
REMARK   70  A    between atoms: _181  and  _183
REMARK   71  A    between atoms: _183  and  _184
REMARK   72  A    between atoms: _183  and  _186
REMARK   73  A    between atoms: _186  and  _187
REMARK   74  A    between atoms: _189  and  _191
REMARK   75  A    between atoms: _191  and  _192
REMARK   76  A    between atoms: _191  and  _194
REMARK   77  A    between atoms: _194  and  _195
REMARK   78  A    between atoms: _197  and  _199
REMARK   79  A    between atoms: _199  and  _200
REMARK   80  A    between atoms: _203  and  _205
REMARK   81  A    between atoms: _205  and  _206
REMARK   82  A    between atoms: _205  and  _208
REMARK   83  A    between atoms: _208  and  _209
REMARK   84  A    between atoms: _209  and  _210
REMARK   85  A    between atoms: _210  and  _211
REMARK   86  A    between atoms: _220  and  _222
REMARK   87  A    between atoms: _222  and  _223
REMARK   88  A    between atoms: _225  and  _227
REMARK   89  A    between atoms: _227  and  _228
REMARK   90  A    between atoms: _227  and  _230
REMARK   91  A    between atoms: _230  and  _231
REMARK   92  A    between atoms: _233  and  _235
REMARK   93  A    between atoms: _235  and  _236
REMARK   94  A    between atoms: _235  and  _238
REMARK   95  A    between atoms: _238  and  _239
REMARK   96  A    between atoms: _245  and  _247
REMARK   97  A    between atoms: _247  and  _248
REMARK   98  A    between atoms: _247  and  _250
REMARK   99  A    between atoms: _250  and  _251
REMARK  100  A    between atoms: _256  and  _257
REMARK  101  A    between atoms: _259  and  _261
REMARK  102  A    between atoms: _261  and  _262
REMARK  103  A    between atoms: _261  and  _264
REMARK  104  A    between atoms: _264  and  _265
REMARK  105  A    between atoms: _275  and  _277
REMARK  106  A    between atoms: _277  and  _278
REMARK  107  A    between atoms: _281  and  _283
REMARK  108  A    between atoms: _283  and  _284
REMARK  109  A    between atoms: _283  and  _286
REMARK  110  A    between atoms: _286  and  _287
REMARK  111  A    between atoms: _293  and  _294
REMARK  112  A    between atoms: _300  and  _301
REMARK  113  A    between atoms: _306  and  _308
REMARK  114  A    between atoms: _308  and  _309
REMARK  115  A    between atoms: _308  and  _311
REMARK  116  A    between atoms: _311  and  _312
REMARK  117  A    between atoms: _317  and  _319
REMARK  118  A    between atoms: _319  and  _320
REMARK  119  A    between atoms: _319  and  _322
REMARK  120  A    between atoms: _322  and  _323
REMARK  121  A    between atoms: _326  and  _328
REMARK  122  A    between atoms: _328  and  _329
REMARK  123  A    between atoms: _332  and  _334
REMARK  124  A    between atoms: _334  and  _335
REMARK  125  A    between atoms: _334  and  _337
REMARK  126  A    between atoms: _337  and  _338
REMARK  127  A    between atoms: _341  and  _343
REMARK  128  A    between atoms: _343  and  _344
REMARK  129  A    between atoms: _347  and  _349
REMARK  130  A    between atoms: _349  and  _350
REMARK  131  A    between atoms: _349  and  _352
REMARK  132  A    between atoms: _352  and  _353
REMARK  133  A    between atoms: _363  and  _365
REMARK  134  A    between atoms: _365  and  _366
REMARK  135  A    between atoms: _365  and  _368
REMARK  136  A    between atoms: _368  and  _369
REMARK  137  A    between atoms: _374  and  _376
REMARK  138  A    between atoms: _376  and  _377
REMARK  139  A    between atoms: _376  and  _379
REMARK  140  A    between atoms: _379  and  _380
REMARK  141  A    between atoms: _385  and  _386
REMARK  142  A    between atoms: _388  and  _390
REMARK  143  A    between atoms: _390  and  _391
REMARK  144  A    between atoms: _390  and  _393
REMARK  145  A    between atoms: _396  and  _398
REMARK  146  A    between atoms: _398  and  _399
REMARK  147  A    between atoms: _398  and  _401
REMARK  148  A    between atoms: _401  and  _402
REMARK  149  A    between atoms: _404  and  _406
REMARK  150  A    between atoms: _406  and  _407
REMARK  151  A    between atoms: _406  and  _409
REMARK  152  A    between atoms: _409  and  _410
REMARK  153  A    between atoms: _420  and  _422
REMARK  154  A    between atoms: _422  and  _423
REMARK  155  A    between atoms: _422  and  _425
REMARK  156  A    between atoms: _425  and  _426
REMARK  157  A    between atoms: _431  and  _432
REMARK  158  A    between atoms: _434  and  _436
REMARK  159  A    between atoms: _436  and  _437
REMARK  160  A    between atoms: _436  and  _439
REMARK  161  A    between atoms: _439  and  _440
REMARK  162  A    between atoms: _443  and  _445
REMARK  163  A    between atoms: _445  and  _446
REMARK  164  A    between atoms: _445  and  _448
REMARK  165  A    between atoms: _448  and  _449
REMARK  166  A    between atoms: _452  and  _454
REMARK  167  A    between atoms: _454  and  _455
REMARK  168  A    between atoms: _454  and  _457
REMARK  169  A    between atoms: _457  and  _458
REMARK  170  A    between atoms: _461  and  _463
REMARK  171  A    between atoms: _463  and  _464
REMARK  172  A    between atoms: _463  and  _466
REMARK  173  A    between atoms: _466  and  _467
REMARK  174  A    between atoms: _472  and  _473
REMARK  175  A    between atoms: _475  and  _477
REMARK  176  A    between atoms: _477  and  _478
REMARK  177  A    between atoms: _477  and  _480
REMARK  178  A    between atoms: _482  and  _484
REMARK  179  A    between atoms: _484  and  _485
REMARK  180  A    between atoms: _487  and  _489
REMARK  181  A    between atoms: _489  and  _490
REMARK  182  A    between atoms: _489  and  _492
REMARK  183  A    between atoms: _492  and  _493
REMARK  184  A    between atoms: _496  and  _498
REMARK  185  A    between atoms: _498  and  _499
REMARK  186  A    between atoms: _498  and  _501
REMARK  187  A    between atoms: _501  and  _502
REMARK  188  A    between atoms: _512  and  _514
REMARK  189  A    between atoms: _514  and  _515
REMARK  190  A    between atoms: _514  and  _517
REMARK  191  A    between atoms: _517  and  _518
REMARK  192  A    between atoms: _521  and  _523
REMARK  193  A    between atoms: _523  and  _524
REMARK  194  A    between atoms: _523  and  _526
REMARK  195  A    between atoms: _526  and  _527
REMARK  196  A    between atoms: _532  and  _533
REMARK  197  A    between atoms: _535  and  _537
REMARK  198  A    between atoms: _537  and  _538
REMARK  199  A    between atoms: _537  and  _540
REMARK  200  A    between atoms: _540  and  _541
REMARK  201  A    between atoms: _544  and  _546
REMARK  202  A    between atoms: _546  and  _547
REMARK  203  A    between atoms: _546  and  _549
REMARK  204  A    between atoms: _549  and  _550
REMARK  205  A    between atoms: _550  and  _551
REMARK  206  A    between atoms: _551  and  _552
REMARK  207  A    between atoms: _561  and  _563
REMARK  208  A    between atoms: _563  and  _564
REMARK  209  A    between atoms: _567  and  _569
REMARK  210  A    between atoms: _569  and  _570
REMARK  211  A    between atoms: _569  and  _572
REMARK  212  A    between atoms: _575  and  _577
REMARK  213  A    between atoms: _577  and  _578
REMARK  214  A    between atoms: _580  and  _582
REMARK  215  A    between atoms: _582  and  _583
REMARK  216  A    between atoms: _582  and  _585
REMARK  217  A    between atoms: _585  and  _586
REMARK  218  A    between atoms: _589  and  _591
REMARK  219  A    between atoms: _591  and  _592
REMARK  220  A    between atoms: _591  and  _594
REMARK  221  A    between atoms: _594  and  _595
REMARK  222  A    between atoms: _601  and  _603
REMARK  223  A    between atoms: _603  and  _604
REMARK                            x       y       z     vdW  Elec       q    Type
REMARK                         _______ _______ _______ _____ _____    ______ ____
ROOT
ATOM      1  CA  LEU A   1      19.140  14.685   0.276  0.00  0.00    +0.133 C 
ENDROOT
BRANCH   1   2
ATOM      2  N   LEU A   1      18.866  15.943   0.961  0.00  0.00    -0.239 NA
ATOM      3  H   LEU A   1      18.152  16.572   0.540  0.00  0.00    +0.142 HD
ENDBRANCH   1   2
BRANCH   1   4
ATOM      4  C   LEU A   1      20.540  14.704  -0.406  0.00  0.00    +0.224 C 
ATOM      5  O   LEU A   1      20.773  15.495  -1.323  0.00  0.00    -0.287 OA
ENDBRANCH   1   4
BRANCH   1   6
ATOM      6  CB  LEU A   1      18.009  14.398  -0.758  0.00  0.00    +0.025 C 
BRANCH   6   7
ATOM      7  CG  LEU A   1      18.199  13.142  -1.632  0.00  0.00    +0.002 C 
ATOM      8  CD2 LEU A   1      18.107  11.843  -0.799  0.00  0.00    +0.000 C 
ATOM      9  CD1 LEU A   1      17.223  13.119  -2.773  0.00  0.00    +0.000 C 
ENDBRANCH   6   7
ENDBRANCH   1   6
TORSDOF 4
REMARK  Name = ../refined-set-2016/5alb/5alb_pocket.pdb
REMARK  223 active torsions:
REMARK  status: ('A' for Active; 'I' for Inactive)
REMARK    1  A    between atoms: _1  and  _3
REMARK    2  A    between atoms: _3  and  _4
REMARK    3  A    between atoms: _3  and  _6
REMARK    4  A    between atoms: _6  and  _7
REMARK    5  A    between atoms: _12  and  _13
REMARK    6  A    between atoms: _15  and  _17
REMARK    7  A    between atoms: _17  and  _18
REMARK    8  A    between atoms: _17  and  _20
REMARK    9  A    between atoms: _20  and  _21
REMARK   10  A    between atoms: _23  and  _25
REMARK   11  A    between atoms: _25  and  _26
REMARK   12  A    between atoms: _25  and  _28
REMARK   13  A    between atoms: _28  and  _29
REMARK   14  A    between atoms: _32  and  _34
REMARK   15  A    between atoms: _34  and  _35
REMARK   16  A    between atoms: _34  and  _37
REMARK   17  A    between atoms: _37  and  _38
REMARK   18  A    between atoms: _43  and  _45
REMARK   19  A    between atoms: _45  and  _46
REMARK   20  A    between atoms: _45  and  _48
REMARK   21  A    between atoms: _48  and  _49
REMARK   22  A    between atoms: _59  and  _61
REMARK   23  A    between atoms: _61  and  _62
REMARK   24  A    between atoms: _61  and  _64
REMARK   25  A    between atoms: _67  and  _69
REMARK   26  A    between atoms: _69  and  _70
REMARK   27  A    between atoms: _69  and  _72
REMARK   28  A    between atoms: _72  and  _73
REMARK   29  A    between atoms: _76  and  _78
REMARK   30  A    between atoms: _78  and  _79
REMARK   31  A    between atoms: _78  and  _81
REMARK   32  A    between atoms: _81  and  _82
REMARK   33  A    between atoms: _82  and  _83
REMARK   34  A    between atoms: _86  and  _88
REMARK   35  A    between atoms: _88  and  _89
REMARK   36  A    between atoms: _88  and  _91
REMARK   37  A    between atoms: _91  and  _92
REMARK   38  A    between atoms: _102  and  _104
REMARK   39  A    between atoms: _104  and  _105
REMARK   40  A    between atoms: _104  and  _107
REMARK   41  A    between atoms: _107  and  _108
REMARK   42  A    between atoms: _108  and  _109
REMARK   43  A    between atoms: _111  and  _113
REMARK   44  A    between atoms: _113  and  _114
REMARK   45  A    between atoms: _116  and  _118
REMARK   46  A    between atoms: _118  and  _119
REMARK   47  A    between atoms: _121  and  _123
REMARK   48  A    between atoms: _123  and  _124
REMARK   49  A    between atoms: _123  and  _126
REMARK   50  A    between atoms: _126  and  _127
REMARK   51  A    between atoms: _130  and  _132
REMARK   52  A    between atoms: _132  and  _133
REMARK   53  A    between atoms: _132  and  _135
REMARK   54  A    between atoms: _135  and  _136
REMARK   55  A    between atoms: _140  and  _141
REMARK   56  A    between atoms: _146  and  _148
REMARK   57  A    between atoms: _148  and  _149
REMARK   58  A    between atoms: _148  and  _151
REMARK   59  A    between atoms: _151  and  _152
REMARK   60  A    between atoms: _158  and  _160
REMARK   61  A    between atoms: _160  and  _161
REMARK   62  A    between atoms: _163  and  _165
REMARK   63  A    between atoms: _165  and  _166
REMARK   64  A    between atoms: _165  and  _168
REMARK   65  A    between atoms: _168  and  _169
REMARK   66  A    between atoms: _172  and  _174
REMARK   67  A    between atoms: _174  and  _175
REMARK   68  A    between atoms: _174  and  _177
REMARK   69  A    between atoms: _177  and  _178
REMARK   70  A    between atoms: _181  and  _183
REMARK   71  A    between atoms: _183  and  _184
REMARK   72  A    between atoms: _183  and  _186
REMARK   73  A    between atoms: _186  and  _187
REMARK   74  A    between atoms: _189  and  _191
REMARK   75  A    between atoms: _191  and  _192
REMARK   76  A    between atoms: _191  and  _194
REMARK   77  A    between atoms: _194  and  _195
REMARK   78  A    between atoms: _197  and  _199
REMARK   79  A    between atoms: _199  and  _200
REMARK   80  A    between atoms: _203  and  _205
REMARK   81  A    between atoms: _205  and  _206
REMARK   82  A    between atoms: _205  and  _208
REMARK   83  A    between atoms: _208  and  _209
REMARK   84  A    between atoms: _209  and  _210
REMARK   85  A    between atoms: _210  and  _211
REMARK   86  A    between atoms: _220  and  _222
REMARK   87  A    between atoms: _222  and  _223
REMARK   88  A    between atoms: _225  and  _227
REMARK   89  A    between atoms: _227  and  _228
REMARK   90  A    between atoms: _227  and  _230
REMARK   91  A    between atoms: _230  and  _231
REMARK   92  A    between atoms: _233  and  _235
REMARK   93  A    between atoms: _235  and  _236
REMARK   94  A    between atoms: _235  and  _238
REMARK   95  A    between atoms: _238  and  _239
REMARK   96  A    between atoms: _245  and  _247
REMARK   97  A    between atoms: _247  and  _248
REMARK   98  A    between atoms: _247  and  _250
REMARK   99  A    between atoms: _250  and  _251
REMARK  100  A    between atoms: _256  and  _257
REMARK  101  A    between atoms: _259  and  _261
REMARK  102  A    between atoms: _261  and  _262
REMARK  103  A    between atoms: _261  and  _264
REMARK  104  A    between atoms: _264  and  _265
REMARK  105  A    between atoms: _275  and  _277
REMARK  106  A    between atoms: _277  and  _278
REMARK  107  A    between atoms: _281  and  _283
REMARK  108  A    between atoms: _283  and  _284
REMARK  109  A    between atoms: _283  and  _286
REMARK  110  A    between atoms: _286  and  _287
REMARK  111  A    between atoms: _293  and  _294
REMARK  112  A    between atoms: _300  and  _301
REMARK  113  A    between atoms: _306  and  _308
REMARK  114  A    between atoms: _308  and  _309
REMARK  115  A    between atoms: _308  and  _311
REMARK  116  A    between atoms: _311  and  _312
REMARK  117  A    between atoms: _317  and  _319
REMARK  118  A    between atoms: _319  and  _320
REMARK  119  A    between atoms: _319  and  _322
REMARK  120  A    between atoms: _322  and  _323
REMARK  121  A    between atoms: _326  and  _328
REMARK  122  A    between atoms: _328  and  _329
REMARK  123  A    between atoms: _332  and  _334
REMARK  124  A    between atoms: _334  and  _335
REMARK  125  A    between atoms: _334  and  _337
REMARK  126  A    between atoms: _337  and  _338
REMARK  127  A    between atoms: _341  and  _343
REMARK  128  A    between atoms: _343  and  _344
REMARK  129  A    between atoms: _347  and  _349
REMARK  130  A    between atoms: _349  and  _350
REMARK  131  A    between atoms: _349  and  _352
REMARK  132  A    between atoms: _352  and  _353
REMARK  133  A    between atoms: _363  and  _365
REMARK  134  A    between atoms: _365  and  _366
REMARK  135  A    between atoms: _365  and  _368
REMARK  136  A    between atoms: _368  and  _369
REMARK  137  A    between atoms: _374  and  _376
REMARK  138  A    between atoms: _376  and  _377
REMARK  139  A    between atoms: _376  and  _379
REMARK  140  A    between atoms: _379  and  _380
REMARK  141  A    between atoms: _385  and  _386
REMARK  142  A    between atoms: _388  and  _390
REMARK  143  A    between atoms: _390  and  _391
REMARK  144  A    between atoms: _390  and  _393
REMARK  145  A    between atoms: _396  and  _398
REMARK  146  A    between atoms: _398  and  _399
REMARK  147  A    between atoms: _398  and  _401
REMARK  148  A    between atoms: _401  and  _402
REMARK  149  A    between atoms: _404  and  _406
REMARK  150  A    between atoms: _406  and  _407
REMARK  151  A    between atoms: _406  and  _409
REMARK  152  A    between atoms: _409  and  _410
REMARK  153  A    between atoms: _420  and  _422
REMARK  154  A    between atoms: _422  and  _423
REMARK  155  A    between atoms: _422  and  _425
REMARK  156  A    between atoms: _425  and  _426
REMARK  157  A    between atoms: _431  and  _432
REMARK  158  A    between atoms: _434  and  _436
REMARK  159  A    between atoms: _436  and  _437
REMARK  160  A    between atoms: _436  and  _439
REMARK  161  A    between atoms: _439  and  _440
REMARK  162  A    between atoms: _443  and  _445
REMARK  163  A    between atoms: _445  and  _446
REMARK  164  A    between atoms: _445  and  _448
REMARK  165  A    between atoms: _448  and  _449
REMARK  166  A    between atoms: _452  and  _454
REMARK  167  A    between atoms: _454  and  _455
REMARK  168  A    between atoms: _454  and  _457
REMARK  169  A    between atoms: _457  and  _458
REMARK  170  A    between atoms: _461  and  _463
REMARK  171  A    between atoms: _463  and  _464
REMARK  172  A    between atoms: _463  and  _466
REMARK  173  A    between atoms: _466  and  _467
REMARK  174  A    between atoms: _472  and  _473
REMARK  175  A    between atoms: _475  and  _477
REMARK  176  A    between atoms: _477  and  _478
REMARK  177  A    between atoms: _477  and  _480
REMARK  178  A    between atoms: _482  and  _484
REMARK  179  A    between atoms: _484  and  _485
REMARK  180  A    between atoms: _487  and  _489
REMARK  181  A    between atoms: _489  and  _490
REMARK  182  A    between atoms: _489  and  _492
REMARK  183  A    between atoms: _492  and  _493
REMARK  184  A    between atoms: _496  and  _498
REMARK  185  A    between atoms: _498  and  _499
REMARK  186  A    between atoms: _498  and  _501
REMARK  187  A    between atoms: _501  and  _502
REMARK  188  A    between atoms: _512  and  _514
REMARK  189  A    between atoms: _514  and  _515
REMARK  190  A    between atoms: _514  and  _517
REMARK  191  A    between atoms: _517  and  _518
REMARK  192  A    between atoms: _521  and  _523
REMARK  193  A    between atoms: _523  and  _524
REMARK  194  A    between atoms: _523  and  _526
REMARK  195  A    between atoms: _526  and  _527
REMARK  196  A    between atoms: _532  and  _533
REMARK  197  A    between atoms: _535  and  _537
REMARK  198  A    between atoms: _537  and  _538
REMARK  199  A    between atoms: _537  and  _540
REMARK  200  A    between atoms: _540  and  _541
REMARK  201  A    between atoms: _544  and  _546
REMARK  202  A    between atoms: _546  and  _547
REMARK  203  A    between atoms: _546  and  _549
REMARK  204  A    between atoms: _549  and  _550
REMARK  205  A    between atoms: _550  and  _551
REMARK  206  A    between atoms: _551  and  _552
REMARK  207  A    between atoms: _561  and  _563
REMARK  208  A    between atoms: _563  and  _564
REMARK  209  A    between atoms: _567  and  _569
REMARK  210  A    between atoms: _569  and  _570
REMARK  211  A    between atoms: _569  and  _572
REMARK  212  A    between atoms: _575  and  _577
REMARK  213  A    between atoms: _577  and  _578
REMARK  214  A    between atoms: _580  and  _582
REMARK  215  A    between atoms: _582  and  _583
REMARK  216  A    between atoms: _582  and  _585
REMARK  217  A    between atoms: _585  and  _586
REMARK  218  A    between atoms: _589  and  _591
REMARK  219  A    between atoms: _591  and  _592
REMARK  220  A    between atoms: _591  and  _594
REMARK  221  A    between atoms: _594  and  _595
REMARK  222  A    between atoms: _601  and  _603
REMARK  223  A    between atoms: _603  and  _604
REMARK                            x       y       z     vdW  Elec       q    Type
REMARK                         _______ _______ _______ _____ _____    ______ ____
ROOT
ATOM      1  CA  ILE A   1      22.524  10.027  -1.716  0.00  0.00    +0.133 C 
ENDROOT
BRANCH   1   2
ATOM      2  N   ILE A   1      22.433  11.298  -1.013  0.00  0.00    -0.239 NA
ATOM      3  H   ILE A   1      21.895  11.311  -0.123  0.00  0.00    +0.142 HD
ENDBRANCH   1   2
BRANCH   1   4
ATOM      4  CB  ILE A   1      23.620   9.099  -1.051  0.00  0.00    +0.023 C 
ATOM      5  CG2 ILE A   1      23.448   7.605  -1.361  0.00  0.00    +0.002 C 
BRANCH   4   6
ATOM      6  CG1 ILE A   1      25.075   9.564  -1.362  0.00  0.00    +0.002 C 
ATOM      7  CD1 ILE A   1      25.552   9.460  -2.818  0.00  0.00    +0.000 C 
ENDBRANCH   4   6
ENDBRANCH   1   4
BRANCH   1   8
ATOM      8  C   ILE A   1      21.154   9.370  -1.716  0.00  0.00    +0.224 C 
ATOM      9  O   ILE A   1      20.527   9.274  -0.669  0.00  0.00    -0.287 OA
ENDBRANCH   1   8
TORSDOF 4
REMARK  Name = ../refined-set-2016/5alb/5alb_pocket.pdb
REMARK  223 active torsions:
REMARK  status: ('A' for Active; 'I' for Inactive)
REMARK    1  A    between atoms: _1  and  _3
REMARK    2  A    between atoms: _3  and  _4
REMARK    3  A    between atoms: _3  and  _6
REMARK    4  A    between atoms: _6  and  _7
REMARK    5  A    between atoms: _12  and  _13
REMARK    6  A    between atoms: _15  and  _17
REMARK    7  A    between atoms: _17  and  _18
REMARK    8  A    between atoms: _17  and  _20
REMARK    9  A    between atoms: _20  and  _21
REMARK   10  A    between atoms: _23  and  _25
REMARK   11  A    between atoms: _25  and  _26
REMARK   12  A    between atoms: _25  and  _28
REMARK   13  A    between atoms: _28  and  _29
REMARK   14  A    between atoms: _32  and  _34
REMARK   15  A    between atoms: _34  and  _35
REMARK   16  A    between atoms: _34  and  _37
REMARK   17  A    between atoms: _37  and  _38
REMARK   18  A    between atoms: _43  and  _45
REMARK   19  A    between atoms: _45  and  _46
REMARK   20  A    between atoms: _45  and  _48
REMARK   21  A    between atoms: _48  and  _49
REMARK   22  A    between atoms: _59  and  _61
REMARK   23  A    between atoms: _61  and  _62
REMARK   24  A    between atoms: _61  and  _64
REMARK   25  A    between atoms: _67  and  _69
REMARK   26  A    between atoms: _69  and  _70
REMARK   27  A    between atoms: _69  and  _72
REMARK   28  A    between atoms: _72  and  _73
REMARK   29  A    between atoms: _76  and  _78
REMARK   30  A    between atoms: _78  and  _79
REMARK   31  A    between atoms: _78  and  _81
REMARK   32  A    between atoms: _81  and  _82
REMARK   33  A    between atoms: _82  and  _83
REMARK   34  A    between atoms: _86  and  _88
REMARK   35  A    between atoms: _88  and  _89
REMARK   36  A    between atoms: _88  and  _91
REMARK   37  A    between atoms: _91  and  _92
REMARK   38  A    between atoms: _102  and  _104
REMARK   39  A    between atoms: _104  and  _105
REMARK   40  A    between atoms: _104  and  _107
REMARK   41  A    between atoms: _107  and  _108
REMARK   42  A    between atoms: _108  and  _109
REMARK   43  A    between atoms: _111  and  _113
REMARK   44  A    between atoms: _113  and  _114
REMARK   45  A    between atoms: _116  and  _118
REMARK   46  A    between atoms: _118  and  _119
REMARK   47  A    between atoms: _121  and  _123
REMARK   48  A    between atoms: _123  and  _124
REMARK   49  A    between atoms: _123  and  _126
REMARK   50  A    between atoms: _126  and  _127
REMARK   51  A    between atoms: _130  and  _132
REMARK   52  A    between atoms: _132  and  _133
REMARK   53  A    between atoms: _132  and  _135
REMARK   54  A    between atoms: _135  and  _136
REMARK   55  A    between atoms: _140  and  _141
REMARK   56  A    between atoms: _146  and  _148
REMARK   57  A    between atoms: _148  and  _149
REMARK   58  A    between atoms: _148  and  _151
REMARK   59  A    between atoms: _151  and  _152
REMARK   60  A    between atoms: _158  and  _160
REMARK   61  A    between atoms: _160  and  _161
REMARK   62  A    between atoms: _163  and  _165
REMARK   63  A    between atoms: _165  and  _166
REMARK   64  A    between atoms: _165  and  _168
REMARK   65  A    between atoms: _168  and  _169
REMARK   66  A    between atoms: _172  and  _174
REMARK   67  A    between atoms: _174  and  _175
REMARK   68  A    between atoms: _174  and  _177
REMARK   69  A    between atoms: _177  and  _178
REMARK   70  A    between atoms: _181  and  _183
REMARK   71  A    between atoms: _183  and  _184
REMARK   72  A    between atoms: _183  and  _186
REMARK   73  A    between atoms: _186  and  _187
REMARK   74  A    between atoms: _189  and  _191
REMARK   75  A    between atoms: _191  and  _192
REMARK   76  A    between atoms: _191  and  _194
REMARK   77  A    between atoms: _194  and  _195
REMARK   78  A    between atoms: _197  and  _199
REMARK   79  A    between atoms: _199  and  _200
REMARK   80  A    between atoms: _203  and  _205
REMARK   81  A    between atoms: _205  and  _206
REMARK   82  A    between atoms: _205  and  _208
REMARK   83  A    between atoms: _208  and  _209
REMARK   84  A    between atoms: _209  and  _210
REMARK   85  A    between atoms: _210  and  _211
REMARK   86  A    between atoms: _220  and  _222
REMARK   87  A    between atoms: _222  and  _223
REMARK   88  A    between atoms: _225  and  _227
REMARK   89  A    between atoms: _227  and  _228
REMARK   90  A    between atoms: _227  and  _230
REMARK   91  A    between atoms: _230  and  _231
REMARK   92  A    between atoms: _233  and  _235
REMARK   93  A    between atoms: _235  and  _236
REMARK   94  A    between atoms: _235  and  _238
REMARK   95  A    between atoms: _238  and  _239
REMARK   96  A    between atoms: _245  and  _247
REMARK   97  A    between atoms: _247  and  _248
REMARK   98  A    between atoms: _247  and  _250
REMARK   99  A    between atoms: _250  and  _251
REMARK  100  A    between atoms: _256  and  _257
REMARK  101  A    between atoms: _259  and  _261
REMARK  102  A    between atoms: _261  and  _262
REMARK  103  A    between atoms: _261  and  _264
REMARK  104  A    between atoms: _264  and  _265
REMARK  105  A    between atoms: _275  and  _277
REMARK  106  A    between atoms: _277  and  _278
REMARK  107  A    between atoms: _281  and  _283
REMARK  108  A    between atoms: _283  and  _284
REMARK  109  A    between atoms: _283  and  _286
REMARK  110  A    between atoms: _286  and  _287
REMARK  111  A    between atoms: _293  and  _294
REMARK  112  A    between atoms: _300  and  _301
REMARK  113  A    between atoms: _306  and  _308
REMARK  114  A    between atoms: _308  and  _309
REMARK  115  A    between atoms: _308  and  _311
REMARK  116  A    between atoms: _311  and  _312
REMARK  117  A    between atoms: _317  and  _319
REMARK  118  A    between atoms: _319  and  _320
REMARK  119  A    between atoms: _319  and  _322
REMARK  120  A    between atoms: _322  and  _323
REMARK  121  A    between atoms: _326  and  _328
REMARK  122  A    between atoms: _328  and  _329
REMARK  123  A    between atoms: _332  and  _334
REMARK  124  A    between atoms: _334  and  _335
REMARK  125  A    between atoms: _334  and  _337
REMARK  126  A    between atoms: _337  and  _338
REMARK  127  A    between atoms: _341  and  _343
REMARK  128  A    between atoms: _343  and  _344
REMARK  129  A    between atoms: _347  and  _349
REMARK  130  A    between atoms: _349  and  _350
REMARK  131  A    between atoms: _349  and  _352
REMARK  132  A    between atoms: _352  and  _353
REMARK  133  A    between atoms: _363  and  _365
REMARK  134  A    between atoms: _365  and  _366
REMARK  135  A    between atoms: _365  and  _368
REMARK  136  A    between atoms: _368  and  _369
REMARK  137  A    between atoms: _374  and  _376
REMARK  138  A    between atoms: _376  and  _377
REMARK  139  A    between atoms: _376  and  _379
REMARK  140  A    between atoms: _379  and  _380
REMARK  141  A    between atoms: _385  and  _386
REMARK  142  A    between atoms: _388  and  _390
REMARK  143  A    between atoms: _390  and  _391
REMARK  144  A    between atoms: _390  and  _393
REMARK  145  A    between atoms: _396  and  _398
REMARK  146  A    between atoms: _398  and  _399
REMARK  147  A    between atoms: _398  and  _401
REMARK  148  A    between atoms: _401  and  _402
REMARK  149  A    between atoms: _404  and  _406
REMARK  150  A    between atoms: _406  and  _407
REMARK  151  A    between atoms: _406  and  _409
REMARK  152  A    between atoms: _409  and  _410
REMARK  153  A    between atoms: _420  and  _422
REMARK  154  A    between atoms: _422  and  _423
REMARK  155  A    between atoms: _422  and  _425
REMARK  156  A    between atoms: _425  and  _426
REMARK  157  A    between atoms: _431  and  _432
REMARK  158  A    between atoms: _434  and  _436
REMARK  159  A    between atoms: _436  and  _437
REMARK  160  A    between atoms: _436  and  _439
REMARK  161  A    between atoms: _439  and  _440
REMARK  162  A    between atoms: _443  and  _445
REMARK  163  A    between atoms: _445  and  _446
REMARK  164  A    between atoms: _445  and  _448
REMARK  165  A    between atoms: _448  and  _449
REMARK  166  A    between atoms: _452  and  _454
REMARK  167  A    between atoms: _454  and  _455
REMARK  168  A    between atoms: _454  and  _457
REMARK  169  A    between atoms: _457  and  _458
REMARK  170  A    between atoms: _461  and  _463
REMARK  171  A    between atoms: _463  and  _464
REMARK  172  A    between atoms: _463  and  _466
REMARK  173  A    between atoms: _466  and  _467
REMARK  174  A    between atoms: _472  and  _473
REMARK  175  A    between atoms: _475  and  _477
REMARK  176  A    between atoms: _477  and  _478
REMARK  177  A    between atoms: _477  and  _480
REMARK  178  A    between atoms: _482  and  _484
REMARK  179  A    between atoms: _484  and  _485
REMARK  180  A    between atoms: _487  and  _489
REMARK  181  A    between atoms: _489  and  _490
REMARK  182  A    between atoms: _489  and  _492
REMARK  183  A    between atoms: _492  and  _493
REMARK  184  A    between atoms: _496  and  _498
REMARK  185  A    between atoms: _498  and  _499
REMARK  186  A    between atoms: _498  and  _501
REMARK  187  A    between atoms: _501  and  _502
REMARK  188  A    between atoms: _512  and  _514
REMARK  189  A    between atoms: _514  and  _515
REMARK  190  A    between atoms: _514  and  _517
REMARK  191  A    between atoms: _517  and  _518
REMARK  192  A    between atoms: _521  and  _523
REMARK  193  A    between atoms: _523  and  _524
REMARK  194  A    between atoms: _523  and  _526
REMARK  195  A    between atoms: _526  and  _527
REMARK  196  A    between atoms: _532  and  _533
REMARK  197  A    between atoms: _535  and  _537
REMARK  198  A    between atoms: _537  and  _538
REMARK  199  A    between atoms: _537  and  _540
REMARK  200  A    between atoms: _540  and  _541
REMARK  201  A    between atoms: _544  and  _546
REMARK  202  A    between atoms: _546  and  _547
REMARK  203  A    between atoms: _546  and  _549
REMARK  204  A    between atoms: _549  and  _550
REMARK  205  A    between atoms: _550  and  _551
REMARK  206  A    between atoms: _551  and  _552
REMARK  207  A    between atoms: _561  and  _563
REMARK  208  A    between atoms: _563  and  _564
REMARK  209  A    between atoms: _567  and  _569
REMARK  210  A    between atoms: _569  and  _570
REMARK  211  A    between atoms: _569  and  _572
REMARK  212  A    between atoms: _575  and  _577
REMARK  213  A    between atoms: _577  and  _578
REMARK  214  A    between atoms: _580  and  _582
REMARK  215  A    between atoms: _582  and  _583
REMARK  216  A    between atoms: _582  and  _585
REMARK  217  A    between atoms: _585  and  _586
REMARK  218  A    between atoms: _589  and  _591
REMARK  219  A    between atoms: _591  and  _592
REMARK  220  A    between atoms: _591  and  _594
REMARK  221  A    between atoms: _594  and  _595
REMARK  222  A    between atoms: _601  and  _603
REMARK  223  A    between atoms: _603  and  _604
REMARK                            x       y       z     vdW  Elec       q    Type
REMARK                         _______ _______ _______ _____ _____    ______ ____
ROOT
ATOM      1  CA  ASP A   1      19.204   4.567  -4.572  0.00  0.00    +0.144 C 
ENDROOT
BRANCH   1   2
ATOM      2  N   ASP A   1      18.990   5.819  -3.825  0.00  0.00    -0.239 NA
ATOM      3  H   ASP A   1      18.116   5.911  -3.269  0.00  0.00    +0.142 HD
ENDBRANCH   1   2
BRANCH   1   4
ATOM      4  C   ASP A   1      20.573   3.904  -4.253  0.00  0.00    +0.225 C 
ATOM      5  O   ASP A   1      21.311   3.528  -5.170  0.00  0.00    -0.287 OA
ENDBRANCH   1   4
BRANCH   1   6
ATOM      6  CB  ASP A   1      19.044   4.833  -6.096  0.00  0.00    +0.139 C 
BRANCH   6   7
ATOM      7  CG  ASP A   1      18.841   3.601  -6.955  0.00  0.00    +0.367 C 
ATOM      8  OD2 ASP A   1      18.501   2.541  -6.399  0.00  0.00    -0.246 OA
ATOM      9  OD1 ASP A   1      19.008   3.704  -8.185  0.00  0.00    -0.246 OA
ENDBRANCH   6   7
ENDBRANCH   1   6
TORSDOF 4
REMARK  Name = ../refined-set-2016/5alb/5alb_pocket.pdb
REMARK  223 active torsions:
REMARK  status: ('A' for Active; 'I' for Inactive)
REMARK    1  A    between atoms: _1  and  _3
REMARK    2  A    between atoms: _3  and  _4
REMARK    3  A    between atoms: _3  and  _6
REMARK    4  A    between atoms: _6  and  _7
REMARK    5  A    between atoms: _12  and  _13
REMARK    6  A    between atoms: _15  and  _17
REMARK    7  A    between atoms: _17  and  _18
REMARK    8  A    between atoms: _17  and  _20
REMARK    9  A    between atoms: _20  and  _21
REMARK   10  A    between atoms: _23  and  _25
REMARK   11  A    between atoms: _25  and  _26
REMARK   12  A    between atoms: _25  and  _28
REMARK   13  A    between atoms: _28  and  _29
REMARK   14  A    between atoms: _32  and  _34
REMARK   15  A    between atoms: _34  and  _35
REMARK   16  A    between atoms: _34  and  _37
REMARK   17  A    between atoms: _37  and  _38
REMARK   18  A    between atoms: _43  and  _45
REMARK   19  A    between atoms: _45  and  _46
REMARK   20  A    between atoms: _45  and  _48
REMARK   21  A    between atoms: _48  and  _49
REMARK   22  A    between atoms: _59  and  _61
REMARK   23  A    between atoms: _61  and  _62
REMARK   24  A    between atoms: _61  and  _64
REMARK   25  A    between atoms: _67  and  _69
REMARK   26  A    between atoms: _69  and  _70
REMARK   27  A    between atoms: _69  and  _72
REMARK   28  A    between atoms: _72  and  _73
REMARK   29  A    between atoms: _76  and  _78
REMARK   30  A    between atoms: _78  and  _79
REMARK   31  A    between atoms: _78  and  _81
REMARK   32  A    between atoms: _81  and  _82
REMARK   33  A    between atoms: _82  and  _83
REMARK   34  A    between atoms: _86  and  _88
REMARK   35  A    between atoms: _88  and  _89
REMARK   36  A    between atoms: _88  and  _91
REMARK   37  A    between atoms: _91  and  _92
REMARK   38  A    between atoms: _102  and  _104
REMARK   39  A    between atoms: _104  and  _105
REMARK   40  A    between atoms: _104  and  _107
REMARK   41  A    between atoms: _107  and  _108
REMARK   42  A    between atoms: _108  and  _109
REMARK   43  A    between atoms: _111  and  _113
REMARK   44  A    between atoms: _113  and  _114
REMARK   45  A    between atoms: _116  and  _118
REMARK   46  A    between atoms: _118  and  _119
REMARK   47  A    between atoms: _121  and  _123
REMARK   48  A    between atoms: _123  and  _124
REMARK   49  A    between atoms: _123  and  _126
REMARK   50  A    between atoms: _126  and  _127
REMARK   51  A    between atoms: _130  and  _132
REMARK   52  A    between atoms: _132  and  _133
REMARK   53  A    between atoms: _132  and  _135
REMARK   54  A    between atoms: _135  and  _136
REMARK   55  A    between atoms: _140  and  _141
REMARK   56  A    between atoms: _146  and  _148
REMARK   57  A    between atoms: _148  and  _149
REMARK   58  A    between atoms: _148  and  _151
REMARK   59  A    between atoms: _151  and  _152
REMARK   60  A    between atoms: _158  and  _160
REMARK   61  A    between atoms: _160  and  _161
REMARK   62  A    between atoms: _163  and  _165
REMARK   63  A    between atoms: _165  and  _166
REMARK   64  A    between atoms: _165  and  _168
REMARK   65  A    between atoms: _168  and  _169
REMARK   66  A    between atoms: _172  and  _174
REMARK   67  A    between atoms: _174  and  _175
REMARK   68  A    between atoms: _174  and  _177
REMARK   69  A    between atoms: _177  and  _178
REMARK   70  A    between atoms: _181  and  _183
REMARK   71  A    between atoms: _183  and  _184
REMARK   72  A    between atoms: _183  and  _186
REMARK   73  A    between atoms: _186  and  _187
REMARK   74  A    between atoms: _189  and  _191
REMARK   75  A    between atoms: _191  and  _192
REMARK   76  A    between atoms: _191  and  _194
REMARK   77  A    between atoms: _194  and  _195
REMARK   78  A    between atoms: _197  and  _199
REMARK   79  A    between atoms: _199  and  _200
REMARK   80  A    between atoms: _203  and  _205
REMARK   81  A    between atoms: _205  and  _206
REMARK   82  A    between atoms: _205  and  _208
REMARK   83  A    between atoms: _208  and  _209
REMARK   84  A    between atoms: _209  and  _210
REMARK   85  A    between atoms: _210  and  _211
REMARK   86  A    between atoms: _220  and  _222
REMARK   87  A    between atoms: _222  and  _223
REMARK   88  A    between atoms: _225  and  _227
REMARK   89  A    between atoms: _227  and  _228
REMARK   90  A    between atoms: _227  and  _230
REMARK   91  A    between atoms: _230  and  _231
REMARK   92  A    between atoms: _233  and  _235
REMARK   93  A    between atoms: _235  and  _236
REMARK   94  A    between atoms: _235  and  _238
REMARK   95  A    between atoms: _238  and  _239
REMARK   96  A    between atoms: _245  and  _247
REMARK   97  A    between atoms: _247  and  _248
REMARK   98  A    between atoms: _247  and  _250
REMARK   99  A    between atoms: _250  and  _251
REMARK  100  A    between atoms: _256  and  _257
REMARK  101  A    between atoms: _259  and  _261
REMARK  102  A    between atoms: _261  and  _262
REMARK  103  A    between atoms: _261  and  _264
REMARK  104  A    between atoms: _264  and  _265
REMARK  105  A    between atoms: _275  and  _277
REMARK  106  A    between atoms: _277  and  _278
REMARK  107  A    between atoms: _281  and  _283
REMARK  108  A    between atoms: _283  and  _284
REMARK  109  A    between atoms: _283  and  _286
REMARK  110  A    between atoms: _286  and  _287
REMARK  111  A    between atoms: _293  and  _294
REMARK  112  A    between atoms: _300  and  _301
REMARK  113  A    between atoms: _306  and  _308
REMARK  114  A    between atoms: _308  and  _309
REMARK  115  A    between atoms: _308  and  _311
REMARK  116  A    between atoms: _311  and  _312
REMARK  117  A    between atoms: _317  and  _319
REMARK  118  A    between atoms: _319  and  _320
REMARK  119  A    between atoms: _319  and  _322
REMARK  120  A    between atoms: _322  and  _323
REMARK  121  A    between atoms: _326  and  _328
REMARK  122  A    between atoms: _328  and  _329
REMARK  123  A    between atoms: _332  and  _334
REMARK  124  A    between atoms: _334  and  _335
REMARK  125  A    between atoms: _334  and  _337
REMARK  126  A    between atoms: _337  and  _338
REMARK  127  A    between atoms: _341  and  _343
REMARK  128  A    between atoms: _343  and  _344
REMARK  129  A    between atoms: _347  and  _349
REMARK  130  A    between atoms: _349  and  _350
REMARK  131  A    between atoms: _349  and  _352
REMARK  132  A    between atoms: _352  and  _353
REMARK  133  A    between atoms: _363  and  _365
REMARK  134  A    between atoms: _365  and  _366
REMARK  135  A    between atoms: _365  and  _368
REMARK  136  A    between atoms: _368  and  _369
REMARK  137  A    between atoms: _374  and  _376
REMARK  138  A    between atoms: _376  and  _377
REMARK  139  A    between atoms: _376  and  _379
REMARK  140  A    between atoms: _379  and  _380
REMARK  141  A    between atoms: _385  and  _386
REMARK  142  A    between atoms: _388  and  _390
REMARK  143  A    between atoms: _390  and  _391
REMARK  144  A    between atoms: _390  and  _393
REMARK  145  A    between atoms: _396  and  _398
REMARK  146  A    between atoms: _398  and  _399
REMARK  147  A    between atoms: _398  and  _401
REMARK  148  A    between atoms: _401  and  _402
REMARK  149  A    between atoms: _404  and  _406
REMARK  150  A    between atoms: _406  and  _407
REMARK  151  A    between atoms: _406  and  _409
REMARK  152  A    between atoms: _409  and  _410
REMARK  153  A    between atoms: _420  and  _422
REMARK  154  A    between atoms: _422  and  _423
REMARK  155  A    between atoms: _422  and  _425
REMARK  156  A    between atoms: _425  and  _426
REMARK  157  A    between atoms: _431  and  _432
REMARK  158  A    between atoms: _434  and  _436
REMARK  159  A    between atoms: _436  and  _437
REMARK  160  A    between atoms: _436  and  _439
REMARK  161  A    between atoms: _439  and  _440
REMARK  162  A    between atoms: _443  and  _445
REMARK  163  A    between atoms: _445  and  _446
REMARK  164  A    between atoms: _445  and  _448
REMARK  165  A    between atoms: _448  and  _449
REMARK  166  A    between atoms: _452  and  _454
REMARK  167  A    between atoms: _454  and  _455
REMARK  168  A    between atoms: _454  and  _457
REMARK  169  A    between atoms: _457  and  _458
REMARK  170  A    between atoms: _461  and  _463
REMARK  171  A    between atoms: _463  and  _464
REMARK  172  A    between atoms: _463  and  _466
REMARK  173  A    between atoms: _466  and  _467
REMARK  174  A    between atoms: _472  and  _473
REMARK  175  A    between atoms: _475  and  _477
REMARK  176  A    between atoms: _477  and  _478
REMARK  177  A    between atoms: _477  and  _480
REMARK  178  A    between atoms: _482  and  _484
REMARK  179  A    between atoms: _484  and  _485
REMARK  180  A    between atoms: _487  and  _489
REMARK  181  A    between atoms: _489  and  _490
REMARK  182  A    between atoms: _489  and  _492
REMARK  183  A    between atoms: _492  and  _493
REMARK  184  A    between atoms: _496  and  _498
REMARK  185  A    between atoms: _498  and  _499
REMARK  186  A    between atoms: _498  and  _501
REMARK  187  A    between atoms: _501  and  _502
REMARK  188  A    between atoms: _512  and  _514
REMARK  189  A    between atoms: _514  and  _515
REMARK  190  A    between atoms: _514  and  _517
REMARK  191  A    between atoms: _517  and  _518
REMARK  192  A    between atoms: _521  and  _523
REMARK  193  A    between atoms: _523  and  _524
REMARK  194  A    between atoms: _523  and  _526
REMARK  195  A    between atoms: _526  and  _527
REMARK  196  A    between atoms: _532  and  _533
REMARK  197  A    between atoms: _535  and  _537
REMARK  198  A    between atoms: _537  and  _538
REMARK  199  A    between atoms: _537  and  _540
REMARK  200  A    between atoms: _540  and  _541
REMARK  201  A    between atoms: _544  and  _546
REMARK  202  A    between atoms: _546  and  _547
REMARK  203  A    between atoms: _546  and  _549
REMARK  204  A    between atoms: _549  and  _550
REMARK  205  A    between atoms: _550  and  _551
REMARK  206  A    between atoms: _551  and  _552
REMARK  207  A    between atoms: _561  and  _563
REMARK  208  A    between atoms: _563  and  _564
REMARK  209  A    between atoms: _567  and  _569
REMARK  210  A    between atoms: _569  and  _570
REMARK  211  A    between atoms: _569  and  _572
REMARK  212  A    between atoms: _575  and  _577
REMARK  213  A    between atoms: _577  and  _578
REMARK  214  A    between atoms: _580  and  _582
REMARK  215  A    between atoms: _582  and  _583
REMARK  216  A    between atoms: _582  and  _585
REMARK  217  A    between atoms: _585  and  _586
REMARK  218  A    between atoms: _589  and  _591
REMARK  219  A    between atoms: _591  and  _592
REMARK  220  A    between atoms: _591  and  _594
REMARK  221  A    between atoms: _594  and  _595
REMARK  222  A    between atoms: _601  and  _603
REMARK  223  A    between atoms: _603  and  _604
REMARK                            x       y       z     vdW  Elec       q    Type
REMARK                         _______ _______ _______ _____ _____    ______ ____
ROOT
ATOM      1  C   TYR A   7       7.458  -2.469   1.404  0.00  0.00    +0.241 C 
ATOM      2  N   ASP A   8       7.769  -3.630   2.015  0.00  0.00    -0.297 N 
ATOM      3  H   ASP A   8       8.770  -3.831   2.211  0.00  0.00    +0.150 HD
ATOM      4  O   TYR A   7       6.305  -2.125   1.159  0.00  0.00    -0.273 OA
ENDROOT
BRANCH   1   5
ATOM      5  CA  TYR A   7       8.622  -1.524   1.032  0.00  0.00    +0.153 C 
BRANCH   5   8
ATOM      6  C   LEU A   6       9.300  -0.956   3.362  0.00  0.00    +0.241 C 
ATOM      7  O   LEU A   6       8.165  -0.671   3.711  0.00  0.00    -0.273 OA
ATOM      8  N   TYR A   7       9.617  -1.345   2.104  0.00  0.00    -0.297 N 
ATOM      9  H   TYR A   7      10.617  -1.527   1.883  0.00  0.00    +0.150 HD
BRANCH   6  10
ATOM     10  CA  LEU A   6      10.450  -0.742   4.331  0.00  0.00    +0.149 C 
BRANCH  10  12
ATOM     11  C   TRP A   5      11.547   1.210   3.289  0.00  0.00    +0.241 C 
ATOM     12  N   LEU A   6      10.765   0.699   4.258  0.00  0.00    -0.297 N 
ATOM     13  H   LEU A   6      10.371   1.338   4.977  0.00  0.00    +0.150 HD
ATOM     14  O   TRP A   5      12.111   0.508   2.460  0.00  0.00    -0.273 OA
BRANCH  11  15
ATOM     15  CA  TRP A   5      11.764   2.730   3.249  0.00  0.00    +0.153 C 
BRANCH  15  18
ATOM     16  C   THR A   4      13.723   3.605   4.386  0.00  0.00    +0.243 C 
ATOM     17  O   THR A   4      13.069   4.119   5.295  0.00  0.00    -0.273 OA
ATOM     18  N   TRP A   5      13.181   2.959   3.368  0.00  0.00    -0.297 N 
ATOM     19  H   TRP A   5      13.806   2.600   2.619  0.00  0.00    +0.150 HD
BRANCH  16  20
ATOM     20  CA  THR A   4      15.216   3.535   4.452  0.00  0.00    +0.176 C 
BRANCH  20  22
ATOM     21  C   GLY A   3      16.734   5.471   4.929  0.00  0.00    +0.243 C 
ATOM     22  N   THR A   4      15.737   4.626   5.296  0.00  0.00    -0.295 N 
ATOM     23  H   THR A   4      15.312   4.757   6.236  0.00  0.00    +0.150 HD
ATOM     24  O   GLY A   3      17.399   5.336   3.901  0.00  0.00    -0.273 OA
BRANCH  21  25
ATOM     25  CA  GLY A   3      17.086   6.584   5.887  0.00  0.00    +0.176 C 
BRANCH  25  28
ATOM     26  C   CYS A   2      19.239   6.979   6.960  0.00  0.00    +0.242 C 
ATOM     27  O   CYS A   2      18.751   7.059   8.081  0.00  0.00    -0.273 OA
ATOM     28  N   GLY A   3      18.523   6.816   5.870  0.00  0.00    -0.295 N 
ATOM     29  H   GLY A   3      19.007   6.855   4.950  0.00  0.00    +0.150 HD
BRANCH  26  30
ATOM     30  CA  CYS A   2      20.741   7.182   6.752  0.00  0.00    +0.160 C 
BRANCH  30  32
ATOM     31  C   TYR A   1      21.248   9.409   7.493  0.00  0.00    +0.239 C 
ATOM     32  N   CYS A   2      21.148   8.118   7.785  0.00  0.00    -0.296 N 
ATOM     33  H   CYS A   2      21.359   7.780   8.745  0.00  0.00    +0.150 HD
ATOM     34  O   TYR A   1      21.148   9.849   6.352  0.00  0.00    -0.274 OA
BRANCH  31  35
ATOM     35  CA  TYR A   1      21.404  10.352   8.662  0.00  0.00    +0.149 C 
BRANCH  35  36
ATOM     36  N   TYR A   1      22.307  11.461   8.370  0.00  0.00    -0.238 NA
ATOM     37  H   TYR A   1      22.101  12.086   7.565  0.00  0.00    +0.142 HD
ENDBRANCH  35  36
BRANCH  35  38
ATOM     38  CB  TYR A   1      19.999  10.865   9.027  0.00  0.00    +0.053 C 
BRANCH  38  39
ATOM     39  CG  TYR A   1      19.955  11.764  10.236  0.00  0.00    -0.020 A 
ATOM     40  CD2 TYR A   1      19.604  11.266  11.484  0.00  0.00    -0.001 A 
ATOM     41  CE2 TYR A   1      19.566  12.092  12.607  0.00  0.00    +0.036 A 
ATOM     42  CZ  TYR A   1      19.857  13.436  12.479  0.00  0.00    +0.134 A 
ATOM     43  CE1 TYR A   1      20.188  13.960  11.240  0.00  0.00    +0.036 A 
ATOM     44  CD1 TYR A   1      20.238  13.124  10.130  0.00  0.00    -0.001 A 
BRANCH  42  45
ATOM     45  OH  TYR A   1      19.840  14.238  13.586  0.00  0.00    -0.506 OA
ATOM     46  HH  TYR A   1      20.069  15.165  13.324  0.00  0.00    +0.292 HD
ENDBRANCH  42  45
ENDBRANCH  38  39
ENDBRANCH  35  38
ENDBRANCH  31  35
ENDBRANCH  30  32
BRANCH  30  47
ATOM     47  CB  CYS A   2      21.509   5.863   6.780  0.00  0.00    +0.098 C 
ATOM     48  SG  CYS A   2      21.370   4.925   8.322  0.00  0.00    -0.080 S 
ENDBRANCH  30  47
ENDBRANCH  26  30
ENDBRANCH  25  28
ENDBRANCH  21  25
ENDBRANCH  20  22
BRANCH  20  49
ATOM     49  CB  THR A   4      15.424   2.090   5.019  0.00  0.00    +0.137 C 
ATOM     50  CG2 THR A   4      16.016   1.142   4.004  0.00  0.00    +0.034 C 
BRANCH  49  51
ATOM     51  OG1 THR A   4      16.171   2.083   6.233  0.00  0.00    -0.382 OA
ATOM     52  HG1 THR A   4      16.275   1.151   6.550  0.00  0.00    +0.210 HD
ENDBRANCH  49  51
ENDBRANCH  20  49
ENDBRANCH  16  20
ENDBRANCH  15  18
BRANCH  15  53
ATOM     53  CB  TRP A   5      11.209   3.333   1.966  0.00  0.00    +0.057 C 
BRANCH  53  54
ATOM     54  CG  TRP A   5       9.724   3.139   1.871  0.00  0.00    -0.002 A 
ATOM     55  CD2 TRP A   5       8.722   3.816   2.643  0.00  0.00    +0.013 A 
ATOM     56  CE3 TRP A   5       8.762   4.821   3.625  0.00  0.00    +0.001 A 
ATOM     57  CZ3 TRP A   5       7.571   5.264   4.170  0.00  0.00    +0.000 A 
ATOM     58  CH2 TRP A   5       6.334   4.753   3.732  0.00  0.00    +0.001 A 
ATOM     59  CZ2 TRP A   5       6.263   3.767   2.765  0.00  0.00    +0.017 A 
ATOM     60  CE2 TRP A   5       7.468   3.293   2.246  0.00  0.00    +0.056 A 
ATOM     61  NE1 TRP A   5       7.712   2.287   1.349  0.00  0.00    -0.352 N 
ATOM     62  HE1 TRP A   5       6.992   1.666   0.928  0.00  0.00    +0.166 HD
ATOM     63  CD1 TRP A   5       9.063   2.230   1.094  0.00  0.00    +0.068 A 
ENDBRANCH  53  54
ENDBRANCH  15  53
ENDBRANCH  11  15
ENDBRANCH  10  12
BRANCH  10  64
ATOM     64  CB  LEU A   6      10.071  -1.191   5.757  0.00  0.00    +0.029 C 
BRANCH  64  65
ATOM     65  CG  LEU A   6      11.223  -1.449   6.725  0.00  0.00    +0.002 C 
ATOM     66  CD2 LEU A   6      10.702  -1.940   8.066  0.00  0.00    +0.000 C 
ATOM     67  CD1 LEU A   6      12.097  -0.221   6.914  0.00  0.00    +0.000 C 
ENDBRANCH  64  65
ENDBRANCH  10  64
ENDBRANCH   6  10
ENDBRANCH   5   8
BRANCH   5  68
ATOM     68  CB  TYR A   7       9.286  -1.960  -0.287  0.00  0.00    +0.055 C 
BRANCH  68  69
ATOM     69  CG  TYR A   7       8.328  -1.926  -1.460  0.00  0.00    -0.020 A 
ATOM     70  CD2 TYR A   7       7.769  -3.098  -1.964  0.00  0.00    -0.001 A 
ATOM     71  CE2 TYR A   7       6.879  -3.069  -3.036  0.00  0.00    +0.036 A 
ATOM     72  CZ  TYR A   7       6.528  -1.857  -3.602  0.00  0.00    +0.134 A 
ATOM     73  CE1 TYR A   7       7.060  -0.684  -3.104  0.00  0.00    +0.036 A 
ATOM     74  CD1 TYR A   7       7.965  -0.726  -2.052  0.00  0.00    -0.001 A 
BRANCH  72  75
ATOM     75  OH  TYR A   7       5.668  -1.798  -4.673  0.00  0.00    -0.506 OA
ATOM     76  HH  TYR A   7       6.053  -2.304  -5.432  0.00  0.00    +0.292 HD
ENDBRANCH  72  75
ENDBRANCH  68  69
ENDBRANCH   5  68
ENDBRANCH   1   5
BRANCH   2  77
ATOM     77  CA  ASP A   8       6.768  -4.624   2.417  0.00  0.00    +0.160 C 
BRANCH  77  78
ATOM     78  C   ASP A   8       5.687  -4.064   3.346  0.00  0.00    +0.241 C 
ATOM     79  N   ARG A   9       6.100  -3.397   4.455  0.00  0.00    -0.297 N 
ATOM     80  H   ARG A   9       7.128  -3.273   4.549  0.00  0.00    +0.150 HD
ATOM     81  O   ASP A   8       4.508  -4.176   3.009  0.00  0.00    -0.273 OA
BRANCH  79  82
ATOM     82  CA  ARG A   9       5.278  -2.821   5.552  0.00  0.00    +0.149 C 
BRANCH  82  83
ATOM     83  C   ARG A   9       4.800  -1.395   5.332  0.00  0.00    +0.241 C 
ATOM     84  O   ARG A   9       3.950  -0.933   6.094  0.00  0.00    -0.273 OA
ATOM     85  N   ALA A  10       5.349  -0.691   4.305  0.00  0.00    -0.297 N 
ATOM     86  H   ALA A  10       6.013  -1.212   3.697  0.00  0.00    +0.150 HD
BRANCH  85  87
ATOM     87  CA  ALA A  10       5.116   0.722   3.950  0.00  0.00    +0.149 C 
ATOM     88  CB  ALA A  10       3.680   0.966   3.443  0.00  0.00    +0.031 C 
BRANCH  87  89
ATOM     89  C   ALA A  10       5.479   1.657   5.106  0.00  0.00    +0.241 C 
ATOM     90  N   VAL A  11       6.673   1.466   5.698  0.00  0.00    -0.297 N 
ATOM     91  H   VAL A  11       7.292   0.703   5.357  0.00  0.00    +0.150 HD
ATOM     92  O   ALA A  10       4.692   2.536   5.468  0.00  0.00    -0.273 OA
BRANCH  90  93
ATOM     93  CA  VAL A  11       7.126   2.314   6.820  0.00  0.00    +0.149 C 
BRANCH  93  94
ATOM     94  C   VAL A  11       8.527   2.830   6.553  0.00  0.00    +0.241 C 
ATOM     95  N   GLY A  12       8.829   4.017   7.069  0.00  0.00    -0.295 N 
ATOM     96  H   GLY A  12       8.088   4.511   7.607  0.00  0.00    +0.150 HD
ATOM     97  O   VAL A  11       9.281   2.171   5.858  0.00  0.00    -0.273 OA
BRANCH  95  98
ATOM     98  CA  GLY A  12      10.121   4.677   6.937  0.00  0.00    +0.176 C 
BRANCH  98  99
ATOM     99  C   GLY A  12      10.903   4.584   8.221  0.00  0.00    +0.243 C 
ATOM    100  O   GLY A  12      10.315   4.526   9.305  0.00  0.00    -0.273 OA
ATOM    101  N   LEU A  13      12.237   4.589   8.107  0.00  0.00    -0.297 N 
ATOM    102  H   LEU A  13      12.656   4.701   7.162  0.00  0.00    +0.150 HD
BRANCH 101 103
ATOM    103  CA  LEU A  13      13.130   4.443   9.257  0.00  0.00    +0.149 C 
BRANCH 103 104
ATOM    104  C   LEU A  13      14.422   5.174   9.041  0.00  0.00    +0.241 C 
ATOM    105  N   PHE A  14      14.818   5.944  10.028  0.00  0.00    -0.297 N 
ATOM    106  H   PHE A  14      14.203   6.041  10.861  0.00  0.00    +0.150 HD
ATOM    107  O   LEU A  13      15.082   4.992   8.020  0.00  0.00    -0.273 OA
BRANCH 105 108
ATOM    108  CA  PHE A  14      16.087   6.671  10.005  0.00  0.00    +0.153 C 
BRANCH 108 109
ATOM    109  C   PHE A  14      17.020   6.059  11.007  0.00  0.00    +0.241 C 
ATOM    110  O   PHE A  14      16.586   5.626  12.076  0.00  0.00    -0.273 OA
ATOM    111  N   GLY A  15      18.302   6.088  10.688  0.00  0.00    -0.296 N 
ATOM    112  H   GLY A  15      18.575   6.412   9.738  0.00  0.00    +0.150 HD
BRANCH 111 113
ATOM    113  CA  GLY A  15      19.345   5.683  11.619  0.00  0.00    +0.163 C 
BRANCH 113 114
ATOM    114  C   GLY A  15      19.522   6.787  12.637  0.00  0.00    +0.229 C 
ATOM    115  O   GLY A  15      19.005   7.892  12.437  0.00  0.00    -0.286 OA
ENDBRANCH 113 114
ENDBRANCH 111 113
ENDBRANCH 108 109
BRANCH 108 116
ATOM    116  CB  PHE A  14      15.883   8.168  10.368  0.00  0.00    +0.055 C 
BRANCH 116 117
ATOM    117  CG  PHE A  14      15.158   8.981   9.309  0.00  0.00    -0.020 A 
ATOM    118  CD2 PHE A  14      13.794   9.241   9.421  0.00  0.00    -0.004 A 
ATOM    119  CE2 PHE A  14      13.130   9.997   8.455  0.00  0.00    -0.000 A 
ATOM    120  CZ  PHE A  14      13.823  10.484   7.358  0.00  0.00    -0.000 A 
ATOM    121  CE1 PHE A  14      15.181  10.258   7.246  0.00  0.00    -0.000 A 
ATOM    122  CD1 PHE A  14      15.848   9.514   8.222  0.00  0.00    -0.004 A 
ENDBRANCH 116 117
ENDBRANCH 108 116
ENDBRANCH 105 108
ENDBRANCH 103 104
BRANCH 103 123
ATOM    123  CB  LEU A  13      13.453   2.944   9.467  0.00  0.00    +0.029 C 
BRANCH 123 124
ATOM    124  CG  LEU A  13      12.920   2.291  10.723  0.00  0.00    +0.002 C 
ATOM    125  CD2 LEU A  13      13.874   2.495  11.903  0.00  0.00    +0.000 C 
ATOM    126  CD1 LEU A  13      12.681   0.792  10.483  0.00  0.00    +0.000 C 
ENDBRANCH 123 124
ENDBRANCH 103 123
ENDBRANCH 101 103
ENDBRANCH  98  99
ENDBRANCH  95  98
ENDBRANCH  93  94
BRANCH  93 127
ATOM    127  CB  VAL A  11       6.984   1.725   8.262  0.00  0.00    +0.027 C 
ATOM    128  CG2 VAL A  11       5.529   1.522   8.659  0.00  0.00    +0.002 C 
ATOM    129  CG1 VAL A  11       7.768   0.443   8.437  0.00  0.00    +0.002 C 
ENDBRANCH  93 127
ENDBRANCH  90  93
ENDBRANCH  87  89
ENDBRANCH  85  87
ENDBRANCH  82  83
BRANCH  82 130
ATOM    130  CB  ARG A   9       6.096  -2.827   6.859  0.00  0.00    +0.033 C 
BRANCH 130 131
ATOM    131  CG  ARG A   9       6.362  -4.200   7.456  0.00  0.00    +0.045 C 
BRANCH 131 132
ATOM    132  CD  ARG A   9       7.657  -4.240   8.222  0.00  0.00    +0.174 C 
BRANCH 132 133
ATOM    133  NE  ARG A   9       8.244  -5.577   8.138  0.00  0.00    -0.265 N 
ATOM    134  CZ  ARG A   9       9.261  -6.023   8.871  0.00  0.00    +0.342 C 
ATOM    135  NH2 ARG A   9       9.838  -5.234   9.774  0.00  0.00    -0.292 N 
ATOM    136 HH21 ARG A   9      10.632  -5.589  10.343  0.00  0.00    +0.255 HD
ATOM    137 HH22 ARG A   9       9.494  -4.262   9.910  0.00  0.00    +0.255 HD
ATOM    138  NH1 ARG A   9       9.705  -7.262   8.712  0.00  0.00    -0.292 N 
ATOM    139 HH11 ARG A   9      10.500  -7.607   9.287  0.00  0.00    +0.255 HD
ATOM    140 HH12 ARG A   9       9.258  -7.889   8.013  0.00  0.00    +0.255 HD
ATOM    141  HE  ARG A   9       7.831  -6.235   7.446  0.00  0.00    +0.259 HD
ENDBRANCH 132 133
ENDBRANCH 131 132
ENDBRANCH 130 131
ENDBRANCH  82 130
ENDBRANCH  79  82
ENDBRANCH  77  78
BRANCH  77 142
ATOM    142  CB  ASP A   8       7.436  -5.890   3.025  0.00  0.00    +0.143 C 
BRANCH 142 143
ATOM    143  CG  ASP A   8       8.304  -5.693   4.273  0.00  0.00    +0.367 C 
ATOM    144  OD2 ASP A   8       8.777  -6.701   4.829  0.00  0.00    -0.246 OA
ATOM    145  OD1 ASP A   8       8.597  -4.524   4.626  0.00  0.00    -0.246 OA
ENDBRANCH 142 143
ENDBRANCH  77 142
ENDBRANCH   2  77
TORSDOF 54
REMARK  Name = ../refined-set-2016/5alb/5alb_pocket.pdb
REMARK  223 active torsions:
REMARK  status: ('A' for Active; 'I' for Inactive)
REMARK    1  A    between atoms: _1  and  _3
REMARK    2  A    between atoms: _3  and  _4
REMARK    3  A    between atoms: _3  and  _6
REMARK    4  A    between atoms: _6  and  _7
REMARK    5  A    between atoms: _12  and  _13
REMARK    6  A    between atoms: _15  and  _17
REMARK    7  A    between atoms: _17  and  _18
REMARK    8  A    between atoms: _17  and  _20
REMARK    9  A    between atoms: _20  and  _21
REMARK   10  A    between atoms: _23  and  _25
REMARK   11  A    between atoms: _25  and  _26
REMARK   12  A    between atoms: _25  and  _28
REMARK   13  A    between atoms: _28  and  _29
REMARK   14  A    between atoms: _32  and  _34
REMARK   15  A    between atoms: _34  and  _35
REMARK   16  A    between atoms: _34  and  _37
REMARK   17  A    between atoms: _37  and  _38
REMARK   18  A    between atoms: _43  and  _45
REMARK   19  A    between atoms: _45  and  _46
REMARK   20  A    between atoms: _45  and  _48
REMARK   21  A    between atoms: _48  and  _49
REMARK   22  A    between atoms: _59  and  _61
REMARK   23  A    between atoms: _61  and  _62
REMARK   24  A    between atoms: _61  and  _64
REMARK   25  A    between atoms: _67  and  _69
REMARK   26  A    between atoms: _69  and  _70
REMARK   27  A    between atoms: _69  and  _72
REMARK   28  A    between atoms: _72  and  _73
REMARK   29  A    between atoms: _76  and  _78
REMARK   30  A    between atoms: _78  and  _79
REMARK   31  A    between atoms: _78  and  _81
REMARK   32  A    between atoms: _81  and  _82
REMARK   33  A    between atoms: _82  and  _83
REMARK   34  A    between atoms: _86  and  _88
REMARK   35  A    between atoms: _88  and  _89
REMARK   36  A    between atoms: _88  and  _91
REMARK   37  A    between atoms: _91  and  _92
REMARK   38  A    between atoms: _102  and  _104
REMARK   39  A    between atoms: _104  and  _105
REMARK   40  A    between atoms: _104  and  _107
REMARK   41  A    between atoms: _107  and  _108
REMARK   42  A    between atoms: _108  and  _109
REMARK   43  A    between atoms: _111  and  _113
REMARK   44  A    between atoms: _113  and  _114
REMARK   45  A    between atoms: _116  and  _118
REMARK   46  A    between atoms: _118  and  _119
REMARK   47  A    between atoms: _121  and  _123
REMARK   48  A    between atoms: _123  and  _124
REMARK   49  A    between atoms: _123  and  _126
REMARK   50  A    between atoms: _126  and  _127
REMARK   51  A    between atoms: _130  and  _132
REMARK   52  A    between atoms: _132  and  _133
REMARK   53  A    between atoms: _132  and  _135
REMARK   54  A    between atoms: _135  and  _136
REMARK   55  A    between atoms: _140  and  _141
REMARK   56  A    between atoms: _146  and  _148
REMARK   57  A    between atoms: _148  and  _149
REMARK   58  A    between atoms: _148  and  _151
REMARK   59  A    between atoms: _151  and  _152
REMARK   60  A    between atoms: _158  and  _160
REMARK   61  A    between atoms: _160  and  _161
REMARK   62  A    between atoms: _163  and  _165
REMARK   63  A    between atoms: _165  and  _166
REMARK   64  A    between atoms: _165  and  _168
REMARK   65  A    between atoms: _168  and  _169
REMARK   66  A    between atoms: _172  and  _174
REMARK   67  A    between atoms: _174  and  _175
REMARK   68  A    between atoms: _174  and  _177
REMARK   69  A    between atoms: _177  and  _178
REMARK   70  A    between atoms: _181  and  _183
REMARK   71  A    between atoms: _183  and  _184
REMARK   72  A    between atoms: _183  and  _186
REMARK   73  A    between atoms: _186  and  _187
REMARK   74  A    between atoms: _189  and  _191
REMARK   75  A    between atoms: _191  and  _192
REMARK   76  A    between atoms: _191  and  _194
REMARK   77  A    between atoms: _194  and  _195
REMARK   78  A    between atoms: _197  and  _199
REMARK   79  A    between atoms: _199  and  _200
REMARK   80  A    between atoms: _203  and  _205
REMARK   81  A    between atoms: _205  and  _206
REMARK   82  A    between atoms: _205  and  _208
REMARK   83  A    between atoms: _208  and  _209
REMARK   84  A    between atoms: _209  and  _210
REMARK   85  A    between atoms: _210  and  _211
REMARK   86  A    between atoms: _220  and  _222
REMARK   87  A    between atoms: _222  and  _223
REMARK   88  A    between atoms: _225  and  _227
REMARK   89  A    between atoms: _227  and  _228
REMARK   90  A    between atoms: _227  and  _230
REMARK   91  A    between atoms: _230  and  _231
REMARK   92  A    between atoms: _233  and  _235
REMARK   93  A    between atoms: _235  and  _236
REMARK   94  A    between atoms: _235  and  _238
REMARK   95  A    between atoms: _238  and  _239
REMARK   96  A    between atoms: _245  and  _247
REMARK   97  A    between atoms: _247  and  _248
REMARK   98  A    between atoms: _247  and  _250
REMARK   99  A    between atoms: _250  and  _251
REMARK  100  A    between atoms: _256  and  _257
REMARK  101  A    between atoms: _259  and  _261
REMARK  102  A    between atoms: _261  and  _262
REMARK  103  A    between atoms: _261  and  _264
REMARK  104  A    between atoms: _264  and  _265
REMARK  105  A    between atoms: _275  and  _277
REMARK  106  A    between atoms: _277  and  _278
REMARK  107  A    between atoms: _281  and  _283
REMARK  108  A    between atoms: _283  and  _284
REMARK  109  A    between atoms: _283  and  _286
REMARK  110  A    between atoms: _286  and  _287
REMARK  111  A    between atoms: _293  and  _294
REMARK  112  A    between atoms: _300  and  _301
REMARK  113  A    between atoms: _306  and  _308
REMARK  114  A    between atoms: _308  and  _309
REMARK  115  A    between atoms: _308  and  _311
REMARK  116  A    between atoms: _311  and  _312
REMARK  117  A    between atoms: _317  and  _319
REMARK  118  A    between atoms: _319  and  _320
REMARK  119  A    between atoms: _319  and  _322
REMARK  120  A    between atoms: _322  and  _323
REMARK  121  A    between atoms: _326  and  _328
REMARK  122  A    between atoms: _328  and  _329
REMARK  123  A    between atoms: _332  and  _334
REMARK  124  A    between atoms: _334  and  _335
REMARK  125  A    between atoms: _334  and  _337
REMARK  126  A    between atoms: _337  and  _338
REMARK  127  A    between atoms: _341  and  _343
REMARK  128  A    between atoms: _343  and  _344
REMARK  129  A    between atoms: _347  and  _349
REMARK  130  A    between atoms: _349  and  _350
REMARK  131  A    between atoms: _349  and  _352
REMARK  132  A    between atoms: _352  and  _353
REMARK  133  A    between atoms: _363  and  _365
REMARK  134  A    between atoms: _365  and  _366
REMARK  135  A    between atoms: _365  and  _368
REMARK  136  A    between atoms: _368  and  _369
REMARK  137  A    between atoms: _374  and  _376
REMARK  138  A    between atoms: _376  and  _377
REMARK  139  A    between atoms: _376  and  _379
REMARK  140  A    between atoms: _379  and  _380
REMARK  141  A    between atoms: _385  and  _386
REMARK  142  A    between atoms: _388  and  _390
REMARK  143  A    between atoms: _390  and  _391
REMARK  144  A    between atoms: _390  and  _393
REMARK  145  A    between atoms: _396  and  _398
REMARK  146  A    between atoms: _398  and  _399
REMARK  147  A    between atoms: _398  and  _401
REMARK  148  A    between atoms: _401  and  _402
REMARK  149  A    between atoms: _404  and  _406
REMARK  150  A    between atoms: _406  and  _407
REMARK  151  A    between atoms: _406  and  _409
REMARK  152  A    between atoms: _409  and  _410
REMARK  153  A    between atoms: _420  and  _422
REMARK  154  A    between atoms: _422  and  _423
REMARK  155  A    between atoms: _422  and  _425
REMARK  156  A    between atoms: _425  and  _426
REMARK  157  A    between atoms: _431  and  _432
REMARK  158  A    between atoms: _434  and  _436
REMARK  159  A    between atoms: _436  and  _437
REMARK  160  A    between atoms: _436  and  _439
REMARK  161  A    between atoms: _439  and  _440
REMARK  162  A    between atoms: _443  and  _445
REMARK  163  A    between atoms: _445  and  _446
REMARK  164  A    between atoms: _445  and  _448
REMARK  165  A    between atoms: _448  and  _449
REMARK  166  A    between atoms: _452  and  _454
REMARK  167  A    between atoms: _454  and  _455
REMARK  168  A    between atoms: _454  and  _457
REMARK  169  A    between atoms: _457  and  _458
REMARK  170  A    between atoms: _461  and  _463
REMARK  171  A    between atoms: _463  and  _464
REMARK  172  A    between atoms: _463  and  _466
REMARK  173  A    between atoms: _466  and  _467
REMARK  174  A    between atoms: _472  and  _473
REMARK  175  A    between atoms: _475  and  _477
REMARK  176  A    between atoms: _477  and  _478
REMARK  177  A    between atoms: _477  and  _480
REMARK  178  A    between atoms: _482  and  _484
REMARK  179  A    between atoms: _484  and  _485
REMARK  180  A    between atoms: _487  and  _489
REMARK  181  A    between atoms: _489  and  _490
REMARK  182  A    between atoms: _489  and  _492
REMARK  183  A    between atoms: _492  and  _493
REMARK  184  A    between atoms: _496  and  _498
REMARK  185  A    between atoms: _498  and  _499
REMARK  186  A    between atoms: _498  and  _501
REMARK  187  A    between atoms: _501  and  _502
REMARK  188  A    between atoms: _512  and  _514
REMARK  189  A    between atoms: _514  and  _515
REMARK  190  A    between atoms: _514  and  _517
REMARK  191  A    between atoms: _517  and  _518
REMARK  192  A    between atoms: _521  and  _523
REMARK  193  A    between atoms: _523  and  _524
REMARK  194  A    between atoms: _523  and  _526
REMARK  195  A    between atoms: _526  and  _527
REMARK  196  A    between atoms: _532  and  _533
REMARK  197  A    between atoms: _535  and  _537
REMARK  198  A    between atoms: _537  and  _538
REMARK  199  A    between atoms: _537  and  _540
REMARK  200  A    between atoms: _540  and  _541
REMARK  201  A    between atoms: _544  and  _546
REMARK  202  A    between atoms: _546  and  _547
REMARK  203  A    between atoms: _546  and  _549
REMARK  204  A    between atoms: _549  and  _550
REMARK  205  A    between atoms: _550  and  _551
REMARK  206  A    between atoms: _551  and  _552
REMARK  207  A    between atoms: _561  and  _563
REMARK  208  A    between atoms: _563  and  _564
REMARK  209  A    between atoms: _567  and  _569
REMARK  210  A    between atoms: _569  and  _570
REMARK  211  A    between atoms: _569  and  _572
REMARK  212  A    between atoms: _575  and  _577
REMARK  213  A    between atoms: _577  and  _578
REMARK  214  A    between atoms: _580  and  _582
REMARK  215  A    between atoms: _582  and  _583
REMARK  216  A    between atoms: _582  and  _585
REMARK  217  A    between atoms: _585  and  _586
REMARK  218  A    between atoms: _589  and  _591
REMARK  219  A    between atoms: _591  and  _592
REMARK  220  A    between atoms: _591  and  _594
REMARK  221  A    between atoms: _594  and  _595
REMARK  222  A    between atoms: _601  and  _603
REMARK  223  A    between atoms: _603  and  _604
REMARK                            x       y       z     vdW  Elec       q    Type
REMARK                         _______ _______ _______ _____ _____    ______ ____
ROOT
ATOM      1  O   HOH     1       7.435  10.615  -4.483  0.00  0.00    +0.000 OA
ENDROOT
TORSDOF 0
REMARK  Name = ../refined-set-2016/5alb/5alb_pocket.pdb
REMARK  223 active torsions:
REMARK  status: ('A' for Active; 'I' for Inactive)
REMARK    1  A    between atoms: _1  and  _3
REMARK    2  A    between atoms: _3  and  _4
REMARK    3  A    between atoms: _3  and  _6
REMARK    4  A    between atoms: _6  and  _7
REMARK    5  A    between atoms: _12  and  _13
REMARK    6  A    between atoms: _15  and  _17
REMARK    7  A    between atoms: _17  and  _18
REMARK    8  A    between atoms: _17  and  _20
REMARK    9  A    between atoms: _20  and  _21
REMARK   10  A    between atoms: _23  and  _25
REMARK   11  A    between atoms: _25  and  _26
REMARK   12  A    between atoms: _25  and  _28
REMARK   13  A    between atoms: _28  and  _29
REMARK   14  A    between atoms: _32  and  _34
REMARK   15  A    between atoms: _34  and  _35
REMARK   16  A    between atoms: _34  and  _37
REMARK   17  A    between atoms: _37  and  _38
REMARK   18  A    between atoms: _43  and  _45
REMARK   19  A    between atoms: _45  and  _46
REMARK   20  A    between atoms: _45  and  _48
REMARK   21  A    between atoms: _48  and  _49
REMARK   22  A    between atoms: _59  and  _61
REMARK   23  A    between atoms: _61  and  _62
REMARK   24  A    between atoms: _61  and  _64
REMARK   25  A    between atoms: _67  and  _69
REMARK   26  A    between atoms: _69  and  _70
REMARK   27  A    between atoms: _69  and  _72
REMARK   28  A    between atoms: _72  and  _73
REMARK   29  A    between atoms: _76  and  _78
REMARK   30  A    between atoms: _78  and  _79
REMARK   31  A    between atoms: _78  and  _81
REMARK   32  A    between atoms: _81  and  _82
REMARK   33  A    between atoms: _82  and  _83
REMARK   34  A    between atoms: _86  and  _88
REMARK   35  A    between atoms: _88  and  _89
REMARK   36  A    between atoms: _88  and  _91
REMARK   37  A    between atoms: _91  and  _92
REMARK   38  A    between atoms: _102  and  _104
REMARK   39  A    between atoms: _104  and  _105
REMARK   40  A    between atoms: _104  and  _107
REMARK   41  A    between atoms: _107  and  _108
REMARK   42  A    between atoms: _108  and  _109
REMARK   43  A    between atoms: _111  and  _113
REMARK   44  A    between atoms: _113  and  _114
REMARK   45  A    between atoms: _116  and  _118
REMARK   46  A    between atoms: _118  and  _119
REMARK   47  A    between atoms: _121  and  _123
REMARK   48  A    between atoms: _123  and  _124
REMARK   49  A    between atoms: _123  and  _126
REMARK   50  A    between atoms: _126  and  _127
REMARK   51  A    between atoms: _130  and  _132
REMARK   52  A    between atoms: _132  and  _133
REMARK   53  A    between atoms: _132  and  _135
REMARK   54  A    between atoms: _135  and  _136
REMARK   55  A    between atoms: _140  and  _141
REMARK   56  A    between atoms: _146  and  _148
REMARK   57  A    between atoms: _148  and  _149
REMARK   58  A    between atoms: _148  and  _151
REMARK   59  A    between atoms: _151  and  _152
REMARK   60  A    between atoms: _158  and  _160
REMARK   61  A    between atoms: _160  and  _161
REMARK   62  A    between atoms: _163  and  _165
REMARK   63  A    between atoms: _165  and  _166
REMARK   64  A    between atoms: _165  and  _168
REMARK   65  A    between atoms: _168  and  _169
REMARK   66  A    between atoms: _172  and  _174
REMARK   67  A    between atoms: _174  and  _175
REMARK   68  A    between atoms: _174  and  _177
REMARK   69  A    between atoms: _177  and  _178
REMARK   70  A    between atoms: _181  and  _183
REMARK   71  A    between atoms: _183  and  _184
REMARK   72  A    between atoms: _183  and  _186
REMARK   73  A    between atoms: _186  and  _187
REMARK   74  A    between atoms: _189  and  _191
REMARK   75  A    between atoms: _191  and  _192
REMARK   76  A    between atoms: _191  and  _194
REMARK   77  A    between atoms: _194  and  _195
REMARK   78  A    between atoms: _197  and  _199
REMARK   79  A    between atoms: _199  and  _200
REMARK   80  A    between atoms: _203  and  _205
REMARK   81  A    between atoms: _205  and  _206
REMARK   82  A    between atoms: _205  and  _208
REMARK   83  A    between atoms: _208  and  _209
REMARK   84  A    between atoms: _209  and  _210
REMARK   85  A    between atoms: _210  and  _211
REMARK   86  A    between atoms: _220  and  _222
REMARK   87  A    between atoms: _222  and  _223
REMARK   88  A    between atoms: _225  and  _227
REMARK   89  A    between atoms: _227  and  _228
REMARK   90  A    between atoms: _227  and  _230
REMARK   91  A    between atoms: _230  and  _231
REMARK   92  A    between atoms: _233  and  _235
REMARK   93  A    between atoms: _235  and  _236
REMARK   94  A    between atoms: _235  and  _238
REMARK   95  A    between atoms: _238  and  _239
REMARK   96  A    between atoms: _245  and  _247
REMARK   97  A    between atoms: _247  and  _248
REMARK   98  A    between atoms: _247  and  _250
REMARK   99  A    between atoms: _250  and  _251
REMARK  100  A    between atoms: _256  and  _257
REMARK  101  A    between atoms: _259  and  _261
REMARK  102  A    between atoms: _261  and  _262
REMARK  103  A    between atoms: _261  and  _264
REMARK  104  A    between atoms: _264  and  _265
REMARK  105  A    between atoms: _275  and  _277
REMARK  106  A    between atoms: _277  and  _278
REMARK  107  A    between atoms: _281  and  _283
REMARK  108  A    between atoms: _283  and  _284
REMARK  109  A    between atoms: _283  and  _286
REMARK  110  A    between atoms: _286  and  _287
REMARK  111  A    between atoms: _293  and  _294
REMARK  112  A    between atoms: _300  and  _301
REMARK  113  A    between atoms: _306  and  _308
REMARK  114  A    between atoms: _308  and  _309
REMARK  115  A    between atoms: _308  and  _311
REMARK  116  A    between atoms: _311  and  _312
REMARK  117  A    between atoms: _317  and  _319
REMARK  118  A    between atoms: _319  and  _320
REMARK  119  A    between atoms: _319  and  _322
REMARK  120  A    between atoms: _322  and  _323
REMARK  121  A    between atoms: _326  and  _328
REMARK  122  A    between atoms: _328  and  _329
REMARK  123  A    between atoms: _332  and  _334
REMARK  124  A    between atoms: _334  and  _335
REMARK  125  A    between atoms: _334  and  _337
REMARK  126  A    between atoms: _337  and  _338
REMARK  127  A    between atoms: _341  and  _343
REMARK  128  A    between atoms: _343  and  _344
REMARK  129  A    between atoms: _347  and  _349
REMARK  130  A    between atoms: _349  and  _350
REMARK  131  A    between atoms: _349  and  _352
REMARK  132  A    between atoms: _352  and  _353
REMARK  133  A    between atoms: _363  and  _365
REMARK  134  A    between atoms: _365  and  _366
REMARK  135  A    between atoms: _365  and  _368
REMARK  136  A    between atoms: _368  and  _369
REMARK  137  A    between atoms: _374  and  _376
REMARK  138  A    between atoms: _376  and  _377
REMARK  139  A    between atoms: _376  and  _379
REMARK  140  A    between atoms: _379  and  _380
REMARK  141  A    between atoms: _385  and  _386
REMARK  142  A    between atoms: _388  and  _390
REMARK  143  A    between atoms: _390  and  _391
REMARK  144  A    between atoms: _390  and  _393
REMARK  145  A    between atoms: _396  and  _398
REMARK  146  A    between atoms: _398  and  _399
REMARK  147  A    between atoms: _398  and  _401
REMARK  148  A    between atoms: _401  and  _402
REMARK  149  A    between atoms: _404  and  _406
REMARK  150  A    between atoms: _406  and  _407
REMARK  151  A    between atoms: _406  and  _409
REMARK  152  A    between atoms: _409  and  _410
REMARK  153  A    between atoms: _420  and  _422
REMARK  154  A    between atoms: _422  and  _423
REMARK  155  A    between atoms: _422  and  _425
REMARK  156  A    between atoms: _425  and  _426
REMARK  157  A    between atoms: _431  and  _432
REMARK  158  A    between atoms: _434  and  _436
REMARK  159  A    between atoms: _436  and  _437
REMARK  160  A    between atoms: _436  and  _439
REMARK  161  A    between atoms: _439  and  _440
REMARK  162  A    between atoms: _443  and  _445
REMARK  163  A    between atoms: _445  and  _446
REMARK  164  A    between atoms: _445  and  _448
REMARK  165  A    between atoms: _448  and  _449
REMARK  166  A    between atoms: _452  and  _454
REMARK  167  A    between atoms: _454  and  _455
REMARK  168  A    between atoms: _454  and  _457
REMARK  169  A    between atoms: _457  and  _458
REMARK  170  A    between atoms: _461  and  _463
REMARK  171  A    between atoms: _463  and  _464
REMARK  172  A    between atoms: _463  and  _466
REMARK  173  A    between atoms: _466  and  _467
REMARK  174  A    between atoms: _472  and  _473
REMARK  175  A    between atoms: _475  and  _477
REMARK  176  A    between atoms: _477  and  _478
REMARK  177  A    between atoms: _477  and  _480
REMARK  178  A    between atoms: _482  and  _484
REMARK  179  A    between atoms: _484  and  _485
REMARK  180  A    between atoms: _487  and  _489
REMARK  181  A    between atoms: _489  and  _490
REMARK  182  A    between atoms: _489  and  _492
REMARK  183  A    between atoms: _492  and  _493
REMARK  184  A    between atoms: _496  and  _498
REMARK  185  A    between atoms: _498  and  _499
REMARK  186  A    between atoms: _498  and  _501
REMARK  187  A    between atoms: _501  and  _502
REMARK  188  A    between atoms: _512  and  _514
REMARK  189  A    between atoms: _514  and  _515
REMARK  190  A    between atoms: _514  and  _517
REMARK  191  A    between atoms: _517  and  _518
REMARK  192  A    between atoms: _521  and  _523
REMARK  193  A    between atoms: _523  and  _524
REMARK  194  A    between atoms: _523  and  _526
REMARK  195  A    between atoms: _526  and  _527
REMARK  196  A    between atoms: _532  and  _533
REMARK  197  A    between atoms: _535  and  _537
REMARK  198  A    between atoms: _537  and  _538
REMARK  199  A    between atoms: _537  and  _540
REMARK  200  A    between atoms: _540  and  _541
REMARK  201  A    between atoms: _544  and  _546
REMARK  202  A    between atoms: _546  and  _547
REMARK  203  A    between atoms: _546  and  _549
REMARK  204  A    between atoms: _549  and  _550
REMARK  205  A    between atoms: _550  and  _551
REMARK  206  A    between atoms: _551  and  _552
REMARK  207  A    between atoms: _561  and  _563
REMARK  208  A    between atoms: _563  and  _564
REMARK  209  A    between atoms: _567  and  _569
REMARK  210  A    between atoms: _569  and  _570
REMARK  211  A    between atoms: _569  and  _572
REMARK  212  A    between atoms: _575  and  _577
REMARK  213  A    between atoms: _577  and  _578
REMARK  214  A    between atoms: _580  and  _582
REMARK  215  A    between atoms: _582  and  _583
REMARK  216  A    between atoms: _582  and  _585
REMARK  217  A    between atoms: _585  and  _586
REMARK  218  A    between atoms: _589  and  _591
REMARK  219  A    between atoms: _591  and  _592
REMARK  220  A    between atoms: _591  and  _594
REMARK  221  A    between atoms: _594  and  _595
REMARK  222  A    between atoms: _601  and  _603
REMARK  223  A    between atoms: _603  and  _604
REMARK                            x       y       z     vdW  Elec       q    Type
REMARK                         _______ _______ _______ _____ _____    ______ ____
ROOT
ATOM      1  O   HOH     1      12.394   6.746  12.229  0.00  0.00    +0.000 OA
ENDROOT
TORSDOF 0
REMARK  Name = ../refined-set-2016/5alb/5alb_pocket.pdb
REMARK  223 active torsions:
REMARK  status: ('A' for Active; 'I' for Inactive)
REMARK    1  A    between atoms: _1  and  _3
REMARK    2  A    between atoms: _3  and  _4
REMARK    3  A    between atoms: _3  and  _6
REMARK    4  A    between atoms: _6  and  _7
REMARK    5  A    between atoms: _12  and  _13
REMARK    6  A    between atoms: _15  and  _17
REMARK    7  A    between atoms: _17  and  _18
REMARK    8  A    between atoms: _17  and  _20
REMARK    9  A    between atoms: _20  and  _21
REMARK   10  A    between atoms: _23  and  _25
REMARK   11  A    between atoms: _25  and  _26
REMARK   12  A    between atoms: _25  and  _28
REMARK   13  A    between atoms: _28  and  _29
REMARK   14  A    between atoms: _32  and  _34
REMARK   15  A    between atoms: _34  and  _35
REMARK   16  A    between atoms: _34  and  _37
REMARK   17  A    between atoms: _37  and  _38
REMARK   18  A    between atoms: _43  and  _45
REMARK   19  A    between atoms: _45  and  _46
REMARK   20  A    between atoms: _45  and  _48
REMARK   21  A    between atoms: _48  and  _49
REMARK   22  A    between atoms: _59  and  _61
REMARK   23  A    between atoms: _61  and  _62
REMARK   24  A    between atoms: _61  and  _64
REMARK   25  A    between atoms: _67  and  _69
REMARK   26  A    between atoms: _69  and  _70
REMARK   27  A    between atoms: _69  and  _72
REMARK   28  A    between atoms: _72  and  _73
REMARK   29  A    between atoms: _76  and  _78
REMARK   30  A    between atoms: _78  and  _79
REMARK   31  A    between atoms: _78  and  _81
REMARK   32  A    between atoms: _81  and  _82
REMARK   33  A    between atoms: _82  and  _83
REMARK   34  A    between atoms: _86  and  _88
REMARK   35  A    between atoms: _88  and  _89
REMARK   36  A    between atoms: _88  and  _91
REMARK   37  A    between atoms: _91  and  _92
REMARK   38  A    between atoms: _102  and  _104
REMARK   39  A    between atoms: _104  and  _105
REMARK   40  A    between atoms: _104  and  _107
REMARK   41  A    between atoms: _107  and  _108
REMARK   42  A    between atoms: _108  and  _109
REMARK   43  A    between atoms: _111  and  _113
REMARK   44  A    between atoms: _113  and  _114
REMARK   45  A    between atoms: _116  and  _118
REMARK   46  A    between atoms: _118  and  _119
REMARK   47  A    between atoms: _121  and  _123
REMARK   48  A    between atoms: _123  and  _124
REMARK   49  A    between atoms: _123  and  _126
REMARK   50  A    between atoms: _126  and  _127
REMARK   51  A    between atoms: _130  and  _132
REMARK   52  A    between atoms: _132  and  _133
REMARK   53  A    between atoms: _132  and  _135
REMARK   54  A    between atoms: _135  and  _136
REMARK   55  A    between atoms: _140  and  _141
REMARK   56  A    between atoms: _146  and  _148
REMARK   57  A    between atoms: _148  and  _149
REMARK   58  A    between atoms: _148  and  _151
REMARK   59  A    between atoms: _151  and  _152
REMARK   60  A    between atoms: _158  and  _160
REMARK   61  A    between atoms: _160  and  _161
REMARK   62  A    between atoms: _163  and  _165
REMARK   63  A    between atoms: _165  and  _166
REMARK   64  A    between atoms: _165  and  _168
REMARK   65  A    between atoms: _168  and  _169
REMARK   66  A    between atoms: _172  and  _174
REMARK   67  A    between atoms: _174  and  _175
REMARK   68  A    between atoms: _174  and  _177
REMARK   69  A    between atoms: _177  and  _178
REMARK   70  A    between atoms: _181  and  _183
REMARK   71  A    between atoms: _183  and  _184
REMARK   72  A    between atoms: _183  and  _186
REMARK   73  A    between atoms: _186  and  _187
REMARK   74  A    between atoms: _189  and  _191
REMARK   75  A    between atoms: _191  and  _192
REMARK   76  A    between atoms: _191  and  _194
REMARK   77  A    between atoms: _194  and  _195
REMARK   78  A    between atoms: _197  and  _199
REMARK   79  A    between atoms: _199  and  _200
REMARK   80  A    between atoms: _203  and  _205
REMARK   81  A    between atoms: _205  and  _206
REMARK   82  A    between atoms: _205  and  _208
REMARK   83  A    between atoms: _208  and  _209
REMARK   84  A    between atoms: _209  and  _210
REMARK   85  A    between atoms: _210  and  _211
REMARK   86  A    between atoms: _220  and  _222
REMARK   87  A    between atoms: _222  and  _223
REMARK   88  A    between atoms: _225  and  _227
REMARK   89  A    between atoms: _227  and  _228
REMARK   90  A    between atoms: _227  and  _230
REMARK   91  A    between atoms: _230  and  _231
REMARK   92  A    between atoms: _233  and  _235
REMARK   93  A    between atoms: _235  and  _236
REMARK   94  A    between atoms: _235  and  _238
REMARK   95  A    between atoms: _238  and  _239
REMARK   96  A    between atoms: _245  and  _247
REMARK   97  A    between atoms: _247  and  _248
REMARK   98  A    between atoms: _247  and  _250
REMARK   99  A    between atoms: _250  and  _251
REMARK  100  A    between atoms: _256  and  _257
REMARK  101  A    between atoms: _259  and  _261
REMARK  102  A    between atoms: _261  and  _262
REMARK  103  A    between atoms: _261  and  _264
REMARK  104  A    between atoms: _264  and  _265
REMARK  105  A    between atoms: _275  and  _277
REMARK  106  A    between atoms: _277  and  _278
REMARK  107  A    between atoms: _281  and  _283
REMARK  108  A    between atoms: _283  and  _284
REMARK  109  A    between atoms: _283  and  _286
REMARK  110  A    between atoms: _286  and  _287
REMARK  111  A    between atoms: _293  and  _294
REMARK  112  A    between atoms: _300  and  _301
REMARK  113  A    between atoms: _306  and  _308
REMARK  114  A    between atoms: _308  and  _309
REMARK  115  A    between atoms: _308  and  _311
REMARK  116  A    between atoms: _311  and  _312
REMARK  117  A    between atoms: _317  and  _319
REMARK  118  A    between atoms: _319  and  _320
REMARK  119  A    between atoms: _319  and  _322
REMARK  120  A    between atoms: _322  and  _323
REMARK  121  A    between atoms: _326  and  _328
REMARK  122  A    between atoms: _328  and  _329
REMARK  123  A    between atoms: _332  and  _334
REMARK  124  A    between atoms: _334  and  _335
REMARK  125  A    between atoms: _334  and  _337
REMARK  126  A    between atoms: _337  and  _338
REMARK  127  A    between atoms: _341  and  _343
REMARK  128  A    between atoms: _343  and  _344
REMARK  129  A    between atoms: _347  and  _349
REMARK  130  A    between atoms: _349  and  _350
REMARK  131  A    between atoms: _349  and  _352
REMARK  132  A    between atoms: _352  and  _353
REMARK  133  A    between atoms: _363  and  _365
REMARK  134  A    between atoms: _365  and  _366
REMARK  135  A    between atoms: _365  and  _368
REMARK  136  A    between atoms: _368  and  _369
REMARK  137  A    between atoms: _374  and  _376
REMARK  138  A    between atoms: _376  and  _377
REMARK  139  A    between atoms: _376  and  _379
REMARK  140  A    between atoms: _379  and  _380
REMARK  141  A    between atoms: _385  and  _386
REMARK  142  A    between atoms: _388  and  _390
REMARK  143  A    between atoms: _390  and  _391
REMARK  144  A    between atoms: _390  and  _393
REMARK  145  A    between atoms: _396  and  _398
REMARK  146  A    between atoms: _398  and  _399
REMARK  147  A    between atoms: _398  and  _401
REMARK  148  A    between atoms: _401  and  _402
REMARK  149  A    between atoms: _404  and  _406
REMARK  150  A    between atoms: _406  and  _407
REMARK  151  A    between atoms: _406  and  _409
REMARK  152  A    between atoms: _409  and  _410
REMARK  153  A    between atoms: _420  and  _422
REMARK  154  A    between atoms: _422  and  _423
REMARK  155  A    between atoms: _422  and  _425
REMARK  156  A    between atoms: _425  and  _426
REMARK  157  A    between atoms: _431  and  _432
REMARK  158  A    between atoms: _434  and  _436
REMARK  159  A    between atoms: _436  and  _437
REMARK  160  A    between atoms: _436  and  _439
REMARK  161  A    between atoms: _439  and  _440
REMARK  162  A    between atoms: _443  and  _445
REMARK  163  A    between atoms: _445  and  _446
REMARK  164  A    between atoms: _445  and  _448
REMARK  165  A    between atoms: _448  and  _449
REMARK  166  A    between atoms: _452  and  _454
REMARK  167  A    between atoms: _454  and  _455
REMARK  168  A    between atoms: _454  and  _457
REMARK  169  A    between atoms: _457  and  _458
REMARK  170  A    between atoms: _461  and  _463
REMARK  171  A    between atoms: _463  and  _464
REMARK  172  A    between atoms: _463  and  _466
REMARK  173  A    between atoms: _466  and  _467
REMARK  174  A    between atoms: _472  and  _473
REMARK  175  A    between atoms: _475  and  _477
REMARK  176  A    between atoms: _477  and  _478
REMARK  177  A    between atoms: _477  and  _480
REMARK  178  A    between atoms: _482  and  _484
REMARK  179  A    between atoms: _484  and  _485
REMARK  180  A    between atoms: _487  and  _489
REMARK  181  A    between atoms: _489  and  _490
REMARK  182  A    between atoms: _489  and  _492
REMARK  183  A    between atoms: _492  and  _493
REMARK  184  A    between atoms: _496  and  _498
REMARK  185  A    between atoms: _498  and  _499
REMARK  186  A    between atoms: _498  and  _501
REMARK  187  A    between atoms: _501  and  _502
REMARK  188  A    between atoms: _512  and  _514
REMARK  189  A    between atoms: _514  and  _515
REMARK  190  A    between atoms: _514  and  _517
REMARK  191  A    between atoms: _517  and  _518
REMARK  192  A    between atoms: _521  and  _523
REMARK  193  A    between atoms: _523  and  _524
REMARK  194  A    between atoms: _523  and  _526
REMARK  195  A    between atoms: _526  and  _527
REMARK  196  A    between atoms: _532  and  _533
REMARK  197  A    between atoms: _535  and  _537
REMARK  198  A    between atoms: _537  and  _538
REMARK  199  A    between atoms: _537  and  _540
REMARK  200  A    between atoms: _540  and  _541
REMARK  201  A    between atoms: _544  and  _546
REMARK  202  A    between atoms: _546  and  _547
REMARK  203  A    between atoms: _546  and  _549
REMARK  204  A    between atoms: _549  and  _550
REMARK  205  A    between atoms: _550  and  _551
REMARK  206  A    between atoms: _551  and  _552
REMARK  207  A    between atoms: _561  and  _563
REMARK  208  A    between atoms: _563  and  _564
REMARK  209  A    between atoms: _567  and  _569
REMARK  210  A    between atoms: _569  and  _570
REMARK  211  A    between atoms: _569  and  _572
REMARK  212  A    between atoms: _575  and  _577
REMARK  213  A    between atoms: _577  and  _578
REMARK  214  A    between atoms: _580  and  _582
REMARK  215  A    between atoms: _582  and  _583
REMARK  216  A    between atoms: _582  and  _585
REMARK  217  A    between atoms: _585  and  _586
REMARK  218  A    between atoms: _589  and  _591
REMARK  219  A    between atoms: _591  and  _592
REMARK  220  A    between atoms: _591  and  _594
REMARK  221  A    between atoms: _594  and  _595
REMARK  222  A    between atoms: _601  and  _603
REMARK  223  A    between atoms: _603  and  _604
REMARK                            x       y       z     vdW  Elec       q    Type
REMARK                         _______ _______ _______ _____ _____    ______ ____
ROOT
ATOM      1  O   HOH     1       9.522   5.721  12.810  0.00  0.00    +0.000 OA
ENDROOT
TORSDOF 0
REMARK  Name = ../refined-set-2016/5alb/5alb_pocket.pdb
REMARK  223 active torsions:
REMARK  status: ('A' for Active; 'I' for Inactive)
REMARK    1  A    between atoms: _1  and  _3
REMARK    2  A    between atoms: _3  and  _4
REMARK    3  A    between atoms: _3  and  _6
REMARK    4  A    between atoms: _6  and  _7
REMARK    5  A    between atoms: _12  and  _13
REMARK    6  A    between atoms: _15  and  _17
REMARK    7  A    between atoms: _17  and  _18
REMARK    8  A    between atoms: _17  and  _20
REMARK    9  A    between atoms: _20  and  _21
REMARK   10  A    between atoms: _23  and  _25
REMARK   11  A    between atoms: _25  and  _26
REMARK   12  A    between atoms: _25  and  _28
REMARK   13  A    between atoms: _28  and  _29
REMARK   14  A    between atoms: _32  and  _34
REMARK   15  A    between atoms: _34  and  _35
REMARK   16  A    between atoms: _34  and  _37
REMARK   17  A    between atoms: _37  and  _38
REMARK   18  A    between atoms: _43  and  _45
REMARK   19  A    between atoms: _45  and  _46
REMARK   20  A    between atoms: _45  and  _48
REMARK   21  A    between atoms: _48  and  _49
REMARK   22  A    between atoms: _59  and  _61
REMARK   23  A    between atoms: _61  and  _62
REMARK   24  A    between atoms: _61  and  _64
REMARK   25  A    between atoms: _67  and  _69
REMARK   26  A    between atoms: _69  and  _70
REMARK   27  A    between atoms: _69  and  _72
REMARK   28  A    between atoms: _72  and  _73
REMARK   29  A    between atoms: _76  and  _78
REMARK   30  A    between atoms: _78  and  _79
REMARK   31  A    between atoms: _78  and  _81
REMARK   32  A    between atoms: _81  and  _82
REMARK   33  A    between atoms: _82  and  _83
REMARK   34  A    between atoms: _86  and  _88
REMARK   35  A    between atoms: _88  and  _89
REMARK   36  A    between atoms: _88  and  _91
REMARK   37  A    between atoms: _91  and  _92
REMARK   38  A    between atoms: _102  and  _104
REMARK   39  A    between atoms: _104  and  _105
REMARK   40  A    between atoms: _104  and  _107
REMARK   41  A    between atoms: _107  and  _108
REMARK   42  A    between atoms: _108  and  _109
REMARK   43  A    between atoms: _111  and  _113
REMARK   44  A    between atoms: _113  and  _114
REMARK   45  A    between atoms: _116  and  _118
REMARK   46  A    between atoms: _118  and  _119
REMARK   47  A    between atoms: _121  and  _123
REMARK   48  A    between atoms: _123  and  _124
REMARK   49  A    between atoms: _123  and  _126
REMARK   50  A    between atoms: _126  and  _127
REMARK   51  A    between atoms: _130  and  _132
REMARK   52  A    between atoms: _132  and  _133
REMARK   53  A    between atoms: _132  and  _135
REMARK   54  A    between atoms: _135  and  _136
REMARK   55  A    between atoms: _140  and  _141
REMARK   56  A    between atoms: _146  and  _148
REMARK   57  A    between atoms: _148  and  _149
REMARK   58  A    between atoms: _148  and  _151
REMARK   59  A    between atoms: _151  and  _152
REMARK   60  A    between atoms: _158  and  _160
REMARK   61  A    between atoms: _160  and  _161
REMARK   62  A    between atoms: _163  and  _165
REMARK   63  A    between atoms: _165  and  _166
REMARK   64  A    between atoms: _165  and  _168
REMARK   65  A    between atoms: _168  and  _169
REMARK   66  A    between atoms: _172  and  _174
REMARK   67  A    between atoms: _174  and  _175
REMARK   68  A    between atoms: _174  and  _177
REMARK   69  A    between atoms: _177  and  _178
REMARK   70  A    between atoms: _181  and  _183
REMARK   71  A    between atoms: _183  and  _184
REMARK   72  A    between atoms: _183  and  _186
REMARK   73  A    between atoms: _186  and  _187
REMARK   74  A    between atoms: _189  and  _191
REMARK   75  A    between atoms: _191  and  _192
REMARK   76  A    between atoms: _191  and  _194
REMARK   77  A    between atoms: _194  and  _195
REMARK   78  A    between atoms: _197  and  _199
REMARK   79  A    between atoms: _199  and  _200
REMARK   80  A    between atoms: _203  and  _205
REMARK   81  A    between atoms: _205  and  _206
REMARK   82  A    between atoms: _205  and  _208
REMARK   83  A    between atoms: _208  and  _209
REMARK   84  A    between atoms: _209  and  _210
REMARK   85  A    between atoms: _210  and  _211
REMARK   86  A    between atoms: _220  and  _222
REMARK   87  A    between atoms: _222  and  _223
REMARK   88  A    between atoms: _225  and  _227
REMARK   89  A    between atoms: _227  and  _228
REMARK   90  A    between atoms: _227  and  _230
REMARK   91  A    between atoms: _230  and  _231
REMARK   92  A    between atoms: _233  and  _235
REMARK   93  A    between atoms: _235  and  _236
REMARK   94  A    between atoms: _235  and  _238
REMARK   95  A    between atoms: _238  and  _239
REMARK   96  A    between atoms: _245  and  _247
REMARK   97  A    between atoms: _247  and  _248
REMARK   98  A    between atoms: _247  and  _250
REMARK   99  A    between atoms: _250  and  _251
REMARK  100  A    between atoms: _256  and  _257
REMARK  101  A    between atoms: _259  and  _261
REMARK  102  A    between atoms: _261  and  _262
REMARK  103  A    between atoms: _261  and  _264
REMARK  104  A    between atoms: _264  and  _265
REMARK  105  A    between atoms: _275  and  _277
REMARK  106  A    between atoms: _277  and  _278
REMARK  107  A    between atoms: _281  and  _283
REMARK  108  A    between atoms: _283  and  _284
REMARK  109  A    between atoms: _283  and  _286
REMARK  110  A    between atoms: _286  and  _287
REMARK  111  A    between atoms: _293  and  _294
REMARK  112  A    between atoms: _300  and  _301
REMARK  113  A    between atoms: _306  and  _308
REMARK  114  A    between atoms: _308  and  _309
REMARK  115  A    between atoms: _308  and  _311
REMARK  116  A    between atoms: _311  and  _312
REMARK  117  A    between atoms: _317  and  _319
REMARK  118  A    between atoms: _319  and  _320
REMARK  119  A    between atoms: _319  and  _322
REMARK  120  A    between atoms: _322  and  _323
REMARK  121  A    between atoms: _326  and  _328
REMARK  122  A    between atoms: _328  and  _329
REMARK  123  A    between atoms: _332  and  _334
REMARK  124  A    between atoms: _334  and  _335
REMARK  125  A    between atoms: _334  and  _337
REMARK  126  A    between atoms: _337  and  _338
REMARK  127  A    between atoms: _341  and  _343
REMARK  128  A    between atoms: _343  and  _344
REMARK  129  A    between atoms: _347  and  _349
REMARK  130  A    between atoms: _349  and  _350
REMARK  131  A    between atoms: _349  and  _352
REMARK  132  A    between atoms: _352  and  _353
REMARK  133  A    between atoms: _363  and  _365
REMARK  134  A    between atoms: _365  and  _366
REMARK  135  A    between atoms: _365  and  _368
REMARK  136  A    between atoms: _368  and  _369
REMARK  137  A    between atoms: _374  and  _376
REMARK  138  A    between atoms: _376  and  _377
REMARK  139  A    between atoms: _376  and  _379
REMARK  140  A    between atoms: _379  and  _380
REMARK  141  A    between atoms: _385  and  _386
REMARK  142  A    between atoms: _388  and  _390
REMARK  143  A    between atoms: _390  and  _391
REMARK  144  A    between atoms: _390  and  _393
REMARK  145  A    between atoms: _396  and  _398
REMARK  146  A    between atoms: _398  and  _399
REMARK  147  A    between atoms: _398  and  _401
REMARK  148  A    between atoms: _401  and  _402
REMARK  149  A    between atoms: _404  and  _406
REMARK  150  A    between atoms: _406  and  _407
REMARK  151  A    between atoms: _406  and  _409
REMARK  152  A    between atoms: _409  and  _410
REMARK  153  A    between atoms: _420  and  _422
REMARK  154  A    between atoms: _422  and  _423
REMARK  155  A    between atoms: _422  and  _425
REMARK  156  A    between atoms: _425  and  _426
REMARK  157  A    between atoms: _431  and  _432
REMARK  158  A    between atoms: _434  and  _436
REMARK  159  A    between atoms: _436  and  _437
REMARK  160  A    between atoms: _436  and  _439
REMARK  161  A    between atoms: _439  and  _440
REMARK  162  A    between atoms: _443  and  _445
REMARK  163  A    between atoms: _445  and  _446
REMARK  164  A    between atoms: _445  and  _448
REMARK  165  A    between atoms: _448  and  _449
REMARK  166  A    between atoms: _452  and  _454
REMARK  167  A    between atoms: _454  and  _455
REMARK  168  A    between atoms: _454  and  _457
REMARK  169  A    between atoms: _457  and  _458
REMARK  170  A    between atoms: _461  and  _463
REMARK  171  A    between atoms: _463  and  _464
REMARK  172  A    between atoms: _463  and  _466
REMARK  173  A    between atoms: _466  and  _467
REMARK  174  A    between atoms: _472  and  _473
REMARK  175  A    between atoms: _475  and  _477
REMARK  176  A    between atoms: _477  and  _478
REMARK  177  A    between atoms: _477  and  _480
REMARK  178  A    between atoms: _482  and  _484
REMARK  179  A    between atoms: _484  and  _485
REMARK  180  A    between atoms: _487  and  _489
REMARK  181  A    between atoms: _489  and  _490
REMARK  182  A    between atoms: _489  and  _492
REMARK  183  A    between atoms: _492  and  _493
REMARK  184  A    between atoms: _496  and  _498
REMARK  185  A    between atoms: _498  and  _499
REMARK  186  A    between atoms: _498  and  _501
REMARK  187  A    between atoms: _501  and  _502
REMARK  188  A    between atoms: _512  and  _514
REMARK  189  A    between atoms: _514  and  _515
REMARK  190  A    between atoms: _514  and  _517
REMARK  191  A    between atoms: _517  and  _518
REMARK  192  A    between atoms: _521  and  _523
REMARK  193  A    between atoms: _523  and  _524
REMARK  194  A    between atoms: _523  and  _526
REMARK  195  A    between atoms: _526  and  _527
REMARK  196  A    between atoms: _532  and  _533
REMARK  197  A    between atoms: _535  and  _537
REMARK  198  A    between atoms: _537  and  _538
REMARK  199  A    between atoms: _537  and  _540
REMARK  200  A    between atoms: _540  and  _541
REMARK  201  A    between atoms: _544  and  _546
REMARK  202  A    between atoms: _546  and  _547
REMARK  203  A    between atoms: _546  and  _549
REMARK  204  A    between atoms: _549  and  _550
REMARK  205  A    between atoms: _550  and  _551
REMARK  206  A    between atoms: _551  and  _552
REMARK  207  A    between atoms: _561  and  _563
REMARK  208  A    between atoms: _563  and  _564
REMARK  209  A    between atoms: _567  and  _569
REMARK  210  A    between atoms: _569  and  _570
REMARK  211  A    between atoms: _569  and  _572
REMARK  212  A    between atoms: _575  and  _577
REMARK  213  A    between atoms: _577  and  _578
REMARK  214  A    between atoms: _580  and  _582
REMARK  215  A    between atoms: _582  and  _583
REMARK  216  A    between atoms: _582  and  _585
REMARK  217  A    between atoms: _585  and  _586
REMARK  218  A    between atoms: _589  and  _591
REMARK  219  A    between atoms: _591  and  _592
REMARK  220  A    between atoms: _591  and  _594
REMARK  221  A    between atoms: _594  and  _595
REMARK  222  A    between atoms: _601  and  _603
REMARK  223  A    between atoms: _603  and  _604
REMARK                            x       y       z     vdW  Elec       q    Type
REMARK                         _______ _______ _______ _____ _____    ______ ____
ROOT
ATOM      1  O   HOH     1       8.175   0.844  -9.588  0.00  0.00    +0.000 OA
ENDROOT
TORSDOF 0
REMARK  Name = ../refined-set-2016/5alb/5alb_pocket.pdb
REMARK  223 active torsions:
REMARK  status: ('A' for Active; 'I' for Inactive)
REMARK    1  A    between atoms: _1  and  _3
REMARK    2  A    between atoms: _3  and  _4
REMARK    3  A    between atoms: _3  and  _6
REMARK    4  A    between atoms: _6  and  _7
REMARK    5  A    between atoms: _12  and  _13
REMARK    6  A    between atoms: _15  and  _17
REMARK    7  A    between atoms: _17  and  _18
REMARK    8  A    between atoms: _17  and  _20
REMARK    9  A    between atoms: _20  and  _21
REMARK   10  A    between atoms: _23  and  _25
REMARK   11  A    between atoms: _25  and  _26
REMARK   12  A    between atoms: _25  and  _28
REMARK   13  A    between atoms: _28  and  _29
REMARK   14  A    between atoms: _32  and  _34
REMARK   15  A    between atoms: _34  and  _35
REMARK   16  A    between atoms: _34  and  _37
REMARK   17  A    between atoms: _37  and  _38
REMARK   18  A    between atoms: _43  and  _45
REMARK   19  A    between atoms: _45  and  _46
REMARK   20  A    between atoms: _45  and  _48
REMARK   21  A    between atoms: _48  and  _49
REMARK   22  A    between atoms: _59  and  _61
REMARK   23  A    between atoms: _61  and  _62
REMARK   24  A    between atoms: _61  and  _64
REMARK   25  A    between atoms: _67  and  _69
REMARK   26  A    between atoms: _69  and  _70
REMARK   27  A    between atoms: _69  and  _72
REMARK   28  A    between atoms: _72  and  _73
REMARK   29  A    between atoms: _76  and  _78
REMARK   30  A    between atoms: _78  and  _79
REMARK   31  A    between atoms: _78  and  _81
REMARK   32  A    between atoms: _81  and  _82
REMARK   33  A    between atoms: _82  and  _83
REMARK   34  A    between atoms: _86  and  _88
REMARK   35  A    between atoms: _88  and  _89
REMARK   36  A    between atoms: _88  and  _91
REMARK   37  A    between atoms: _91  and  _92
REMARK   38  A    between atoms: _102  and  _104
REMARK   39  A    between atoms: _104  and  _105
REMARK   40  A    between atoms: _104  and  _107
REMARK   41  A    between atoms: _107  and  _108
REMARK   42  A    between atoms: _108  and  _109
REMARK   43  A    between atoms: _111  and  _113
REMARK   44  A    between atoms: _113  and  _114
REMARK   45  A    between atoms: _116  and  _118
REMARK   46  A    between atoms: _118  and  _119
REMARK   47  A    between atoms: _121  and  _123
REMARK   48  A    between atoms: _123  and  _124
REMARK   49  A    between atoms: _123  and  _126
REMARK   50  A    between atoms: _126  and  _127
REMARK   51  A    between atoms: _130  and  _132
REMARK   52  A    between atoms: _132  and  _133
REMARK   53  A    between atoms: _132  and  _135
REMARK   54  A    between atoms: _135  and  _136
REMARK   55  A    between atoms: _140  and  _141
REMARK   56  A    between atoms: _146  and  _148
REMARK   57  A    between atoms: _148  and  _149
REMARK   58  A    between atoms: _148  and  _151
REMARK   59  A    between atoms: _151  and  _152
REMARK   60  A    between atoms: _158  and  _160
REMARK   61  A    between atoms: _160  and  _161
REMARK   62  A    between atoms: _163  and  _165
REMARK   63  A    between atoms: _165  and  _166
REMARK   64  A    between atoms: _165  and  _168
REMARK   65  A    between atoms: _168  and  _169
REMARK   66  A    between atoms: _172  and  _174
REMARK   67  A    between atoms: _174  and  _175
REMARK   68  A    between atoms: _174  and  _177
REMARK   69  A    between atoms: _177  and  _178
REMARK   70  A    between atoms: _181  and  _183
REMARK   71  A    between atoms: _183  and  _184
REMARK   72  A    between atoms: _183  and  _186
REMARK   73  A    between atoms: _186  and  _187
REMARK   74  A    between atoms: _189  and  _191
REMARK   75  A    between atoms: _191  and  _192
REMARK   76  A    between atoms: _191  and  _194
REMARK   77  A    between atoms: _194  and  _195
REMARK   78  A    between atoms: _197  and  _199
REMARK   79  A    between atoms: _199  and  _200
REMARK   80  A    between atoms: _203  and  _205
REMARK   81  A    between atoms: _205  and  _206
REMARK   82  A    between atoms: _205  and  _208
REMARK   83  A    between atoms: _208  and  _209
REMARK   84  A    between atoms: _209  and  _210
REMARK   85  A    between atoms: _210  and  _211
REMARK   86  A    between atoms: _220  and  _222
REMARK   87  A    between atoms: _222  and  _223
REMARK   88  A    between atoms: _225  and  _227
REMARK   89  A    between atoms: _227  and  _228
REMARK   90  A    between atoms: _227  and  _230
REMARK   91  A    between atoms: _230  and  _231
REMARK   92  A    between atoms: _233  and  _235
REMARK   93  A    between atoms: _235  and  _236
REMARK   94  A    between atoms: _235  and  _238
REMARK   95  A    between atoms: _238  and  _239
REMARK   96  A    between atoms: _245  and  _247
REMARK   97  A    between atoms: _247  and  _248
REMARK   98  A    between atoms: _247  and  _250
REMARK   99  A    between atoms: _250  and  _251
REMARK  100  A    between atoms: _256  and  _257
REMARK  101  A    between atoms: _259  and  _261
REMARK  102  A    between atoms: _261  and  _262
REMARK  103  A    between atoms: _261  and  _264
REMARK  104  A    between atoms: _264  and  _265
REMARK  105  A    between atoms: _275  and  _277
REMARK  106  A    between atoms: _277  and  _278
REMARK  107  A    between atoms: _281  and  _283
REMARK  108  A    between atoms: _283  and  _284
REMARK  109  A    between atoms: _283  and  _286
REMARK  110  A    between atoms: _286  and  _287
REMARK  111  A    between atoms: _293  and  _294
REMARK  112  A    between atoms: _300  and  _301
REMARK  113  A    between atoms: _306  and  _308
REMARK  114  A    between atoms: _308  and  _309
REMARK  115  A    between atoms: _308  and  _311
REMARK  116  A    between atoms: _311  and  _312
REMARK  117  A    between atoms: _317  and  _319
REMARK  118  A    between atoms: _319  and  _320
REMARK  119  A    between atoms: _319  and  _322
REMARK  120  A    between atoms: _322  and  _323
REMARK  121  A    between atoms: _326  and  _328
REMARK  122  A    between atoms: _328  and  _329
REMARK  123  A    between atoms: _332  and  _334
REMARK  124  A    between atoms: _334  and  _335
REMARK  125  A    between atoms: _334  and  _337
REMARK  126  A    between atoms: _337  and  _338
REMARK  127  A    between atoms: _341  and  _343
REMARK  128  A    between atoms: _343  and  _344
REMARK  129  A    between atoms: _347  and  _349
REMARK  130  A    between atoms: _349  and  _350
REMARK  131  A    between atoms: _349  and  _352
REMARK  132  A    between atoms: _352  and  _353
REMARK  133  A    between atoms: _363  and  _365
REMARK  134  A    between atoms: _365  and  _366
REMARK  135  A    between atoms: _365  and  _368
REMARK  136  A    between atoms: _368  and  _369
REMARK  137  A    between atoms: _374  and  _376
REMARK  138  A    between atoms: _376  and  _377
REMARK  139  A    between atoms: _376  and  _379
REMARK  140  A    between atoms: _379  and  _380
REMARK  141  A    between atoms: _385  and  _386
REMARK  142  A    between atoms: _388  and  _390
REMARK  143  A    between atoms: _390  and  _391
REMARK  144  A    between atoms: _390  and  _393
REMARK  145  A    between atoms: _396  and  _398
REMARK  146  A    between atoms: _398  and  _399
REMARK  147  A    between atoms: _398  and  _401
REMARK  148  A    between atoms: _401  and  _402
REMARK  149  A    between atoms: _404  and  _406
REMARK  150  A    between atoms: _406  and  _407
REMARK  151  A    between atoms: _406  and  _409
REMARK  152  A    between atoms: _409  and  _410
REMARK  153  A    between atoms: _420  and  _422
REMARK  154  A    between atoms: _422  and  _423
REMARK  155  A    between atoms: _422  and  _425
REMARK  156  A    between atoms: _425  and  _426
REMARK  157  A    between atoms: _431  and  _432
REMARK  158  A    between atoms: _434  and  _436
REMARK  159  A    between atoms: _436  and  _437
REMARK  160  A    between atoms: _436  and  _439
REMARK  161  A    between atoms: _439  and  _440
REMARK  162  A    between atoms: _443  and  _445
REMARK  163  A    between atoms: _445  and  _446
REMARK  164  A    between atoms: _445  and  _448
REMARK  165  A    between atoms: _448  and  _449
REMARK  166  A    between atoms: _452  and  _454
REMARK  167  A    between atoms: _454  and  _455
REMARK  168  A    between atoms: _454  and  _457
REMARK  169  A    between atoms: _457  and  _458
REMARK  170  A    between atoms: _461  and  _463
REMARK  171  A    between atoms: _463  and  _464
REMARK  172  A    between atoms: _463  and  _466
REMARK  173  A    between atoms: _466  and  _467
REMARK  174  A    between atoms: _472  and  _473
REMARK  175  A    between atoms: _475  and  _477
REMARK  176  A    between atoms: _477  and  _478
REMARK  177  A    between atoms: _477  and  _480
REMARK  178  A    between atoms: _482  and  _484
REMARK  179  A    between atoms: _484  and  _485
REMARK  180  A    between atoms: _487  and  _489
REMARK  181  A    between atoms: _489  and  _490
REMARK  182  A    between atoms: _489  and  _492
REMARK  183  A    between atoms: _492  and  _493
REMARK  184  A    between atoms: _496  and  _498
REMARK  185  A    between atoms: _498  and  _499
REMARK  186  A    between atoms: _498  and  _501
REMARK  187  A    between atoms: _501  and  _502
REMARK  188  A    between atoms: _512  and  _514
REMARK  189  A    between atoms: _514  and  _515
REMARK  190  A    between atoms: _514  and  _517
REMARK  191  A    between atoms: _517  and  _518
REMARK  192  A    between atoms: _521  and  _523
REMARK  193  A    between atoms: _523  and  _524
REMARK  194  A    between atoms: _523  and  _526
REMARK  195  A    between atoms: _526  and  _527
REMARK  196  A    between atoms: _532  and  _533
REMARK  197  A    between atoms: _535  and  _537
REMARK  198  A    between atoms: _537  and  _538
REMARK  199  A    between atoms: _537  and  _540
REMARK  200  A    between atoms: _540  and  _541
REMARK  201  A    between atoms: _544  and  _546
REMARK  202  A    between atoms: _546  and  _547
REMARK  203  A    between atoms: _546  and  _549
REMARK  204  A    between atoms: _549  and  _550
REMARK  205  A    between atoms: _550  and  _551
REMARK  206  A    between atoms: _551  and  _552
REMARK  207  A    between atoms: _561  and  _563
REMARK  208  A    between atoms: _563  and  _564
REMARK  209  A    between atoms: _567  and  _569
REMARK  210  A    between atoms: _569  and  _570
REMARK  211  A    between atoms: _569  and  _572
REMARK  212  A    between atoms: _575  and  _577
REMARK  213  A    between atoms: _577  and  _578
REMARK  214  A    between atoms: _580  and  _582
REMARK  215  A    between atoms: _582  and  _583
REMARK  216  A    between atoms: _582  and  _585
REMARK  217  A    between atoms: _585  and  _586
REMARK  218  A    between atoms: _589  and  _591
REMARK  219  A    between atoms: _591  and  _592
REMARK  220  A    between atoms: _591  and  _594
REMARK  221  A    between atoms: _594  and  _595
REMARK  222  A    between atoms: _601  and  _603
REMARK  223  A    between atoms: _603  and  _604
REMARK                            x       y       z     vdW  Elec       q    Type
REMARK                         _______ _______ _______ _____ _____    ______ ____
ROOT
ATOM      1  O   HOH     1      10.600   2.185  -2.051  0.00  0.00    +0.000 OA
ENDROOT
TORSDOF 0
REMARK  Name = ../refined-set-2016/5alb/5alb_pocket.pdb
REMARK  223 active torsions:
REMARK  status: ('A' for Active; 'I' for Inactive)
REMARK    1  A    between atoms: _1  and  _3
REMARK    2  A    between atoms: _3  and  _4
REMARK    3  A    between atoms: _3  and  _6
REMARK    4  A    between atoms: _6  and  _7
REMARK    5  A    between atoms: _12  and  _13
REMARK    6  A    between atoms: _15  and  _17
REMARK    7  A    between atoms: _17  and  _18
REMARK    8  A    between atoms: _17  and  _20
REMARK    9  A    between atoms: _20  and  _21
REMARK   10  A    between atoms: _23  and  _25
REMARK   11  A    between atoms: _25  and  _26
REMARK   12  A    between atoms: _25  and  _28
REMARK   13  A    between atoms: _28  and  _29
REMARK   14  A    between atoms: _32  and  _34
REMARK   15  A    between atoms: _34  and  _35
REMARK   16  A    between atoms: _34  and  _37
REMARK   17  A    between atoms: _37  and  _38
REMARK   18  A    between atoms: _43  and  _45
REMARK   19  A    between atoms: _45  and  _46
REMARK   20  A    between atoms: _45  and  _48
REMARK   21  A    between atoms: _48  and  _49
REMARK   22  A    between atoms: _59  and  _61
REMARK   23  A    between atoms: _61  and  _62
REMARK   24  A    between atoms: _61  and  _64
REMARK   25  A    between atoms: _67  and  _69
REMARK   26  A    between atoms: _69  and  _70
REMARK   27  A    between atoms: _69  and  _72
REMARK   28  A    between atoms: _72  and  _73
REMARK   29  A    between atoms: _76  and  _78
REMARK   30  A    between atoms: _78  and  _79
REMARK   31  A    between atoms: _78  and  _81
REMARK   32  A    between atoms: _81  and  _82
REMARK   33  A    between atoms: _82  and  _83
REMARK   34  A    between atoms: _86  and  _88
REMARK   35  A    between atoms: _88  and  _89
REMARK   36  A    between atoms: _88  and  _91
REMARK   37  A    between atoms: _91  and  _92
REMARK   38  A    between atoms: _102  and  _104
REMARK   39  A    between atoms: _104  and  _105
REMARK   40  A    between atoms: _104  and  _107
REMARK   41  A    between atoms: _107  and  _108
REMARK   42  A    between atoms: _108  and  _109
REMARK   43  A    between atoms: _111  and  _113
REMARK   44  A    between atoms: _113  and  _114
REMARK   45  A    between atoms: _116  and  _118
REMARK   46  A    between atoms: _118  and  _119
REMARK   47  A    between atoms: _121  and  _123
REMARK   48  A    between atoms: _123  and  _124
REMARK   49  A    between atoms: _123  and  _126
REMARK   50  A    between atoms: _126  and  _127
REMARK   51  A    between atoms: _130  and  _132
REMARK   52  A    between atoms: _132  and  _133
REMARK   53  A    between atoms: _132  and  _135
REMARK   54  A    between atoms: _135  and  _136
REMARK   55  A    between atoms: _140  and  _141
REMARK   56  A    between atoms: _146  and  _148
REMARK   57  A    between atoms: _148  and  _149
REMARK   58  A    between atoms: _148  and  _151
REMARK   59  A    between atoms: _151  and  _152
REMARK   60  A    between atoms: _158  and  _160
REMARK   61  A    between atoms: _160  and  _161
REMARK   62  A    between atoms: _163  and  _165
REMARK   63  A    between atoms: _165  and  _166
REMARK   64  A    between atoms: _165  and  _168
REMARK   65  A    between atoms: _168  and  _169
REMARK   66  A    between atoms: _172  and  _174
REMARK   67  A    between atoms: _174  and  _175
REMARK   68  A    between atoms: _174  and  _177
REMARK   69  A    between atoms: _177  and  _178
REMARK   70  A    between atoms: _181  and  _183
REMARK   71  A    between atoms: _183  and  _184
REMARK   72  A    between atoms: _183  and  _186
REMARK   73  A    between atoms: _186  and  _187
REMARK   74  A    between atoms: _189  and  _191
REMARK   75  A    between atoms: _191  and  _192
REMARK   76  A    between atoms: _191  and  _194
REMARK   77  A    between atoms: _194  and  _195
REMARK   78  A    between atoms: _197  and  _199
REMARK   79  A    between atoms: _199  and  _200
REMARK   80  A    between atoms: _203  and  _205
REMARK   81  A    between atoms: _205  and  _206
REMARK   82  A    between atoms: _205  and  _208
REMARK   83  A    between atoms: _208  and  _209
REMARK   84  A    between atoms: _209  and  _210
REMARK   85  A    between atoms: _210  and  _211
REMARK   86  A    between atoms: _220  and  _222
REMARK   87  A    between atoms: _222  and  _223
REMARK   88  A    between atoms: _225  and  _227
REMARK   89  A    between atoms: _227  and  _228
REMARK   90  A    between atoms: _227  and  _230
REMARK   91  A    between atoms: _230  and  _231
REMARK   92  A    between atoms: _233  and  _235
REMARK   93  A    between atoms: _235  and  _236
REMARK   94  A    between atoms: _235  and  _238
REMARK   95  A    between atoms: _238  and  _239
REMARK   96  A    between atoms: _245  and  _247
REMARK   97  A    between atoms: _247  and  _248
REMARK   98  A    between atoms: _247  and  _250
REMARK   99  A    between atoms: _250  and  _251
REMARK  100  A    between atoms: _256  and  _257
REMARK  101  A    between atoms: _259  and  _261
REMARK  102  A    between atoms: _261  and  _262
REMARK  103  A    between atoms: _261  and  _264
REMARK  104  A    between atoms: _264  and  _265
REMARK  105  A    between atoms: _275  and  _277
REMARK  106  A    between atoms: _277  and  _278
REMARK  107  A    between atoms: _281  and  _283
REMARK  108  A    between atoms: _283  and  _284
REMARK  109  A    between atoms: _283  and  _286
REMARK  110  A    between atoms: _286  and  _287
REMARK  111  A    between atoms: _293  and  _294
REMARK  112  A    between atoms: _300  and  _301
REMARK  113  A    between atoms: _306  and  _308
REMARK  114  A    between atoms: _308  and  _309
REMARK  115  A    between atoms: _308  and  _311
REMARK  116  A    between atoms: _311  and  _312
REMARK  117  A    between atoms: _317  and  _319
REMARK  118  A    between atoms: _319  and  _320
REMARK  119  A    between atoms: _319  and  _322
REMARK  120  A    between atoms: _322  and  _323
REMARK  121  A    between atoms: _326  and  _328
REMARK  122  A    between atoms: _328  and  _329
REMARK  123  A    between atoms: _332  and  _334
REMARK  124  A    between atoms: _334  and  _335
REMARK  125  A    between atoms: _334  and  _337
REMARK  126  A    between atoms: _337  and  _338
REMARK  127  A    between atoms: _341  and  _343
REMARK  128  A    between atoms: _343  and  _344
REMARK  129  A    between atoms: _347  and  _349
REMARK  130  A    between atoms: _349  and  _350
REMARK  131  A    between atoms: _349  and  _352
REMARK  132  A    between atoms: _352  and  _353
REMARK  133  A    between atoms: _363  and  _365
REMARK  134  A    between atoms: _365  and  _366
REMARK  135  A    between atoms: _365  and  _368
REMARK  136  A    between atoms: _368  and  _369
REMARK  137  A    between atoms: _374  and  _376
REMARK  138  A    between atoms: _376  and  _377
REMARK  139  A    between atoms: _376  and  _379
REMARK  140  A    between atoms: _379  and  _380
REMARK  141  A    between atoms: _385  and  _386
REMARK  142  A    between atoms: _388  and  _390
REMARK  143  A    between atoms: _390  and  _391
REMARK  144  A    between atoms: _390  and  _393
REMARK  145  A    between atoms: _396  and  _398
REMARK  146  A    between atoms: _398  and  _399
REMARK  147  A    between atoms: _398  and  _401
REMARK  148  A    between atoms: _401  and  _402
REMARK  149  A    between atoms: _404  and  _406
REMARK  150  A    between atoms: _406  and  _407
REMARK  151  A    between atoms: _406  and  _409
REMARK  152  A    between atoms: _409  and  _410
REMARK  153  A    between atoms: _420  and  _422
REMARK  154  A    between atoms: _422  and  _423
REMARK  155  A    between atoms: _422  and  _425
REMARK  156  A    between atoms: _425  and  _426
REMARK  157  A    between atoms: _431  and  _432
REMARK  158  A    between atoms: _434  and  _436
REMARK  159  A    between atoms: _436  and  _437
REMARK  160  A    between atoms: _436  and  _439
REMARK  161  A    between atoms: _439  and  _440
REMARK  162  A    between atoms: _443  and  _445
REMARK  163  A    between atoms: _445  and  _446
REMARK  164  A    between atoms: _445  and  _448
REMARK  165  A    between atoms: _448  and  _449
REMARK  166  A    between atoms: _452  and  _454
REMARK  167  A    between atoms: _454  and  _455
REMARK  168  A    between atoms: _454  and  _457
REMARK  169  A    between atoms: _457  and  _458
REMARK  170  A    between atoms: _461  and  _463
REMARK  171  A    between atoms: _463  and  _464
REMARK  172  A    between atoms: _463  and  _466
REMARK  173  A    between atoms: _466  and  _467
REMARK  174  A    between atoms: _472  and  _473
REMARK  175  A    between atoms: _475  and  _477
REMARK  176  A    between atoms: _477  and  _478
REMARK  177  A    between atoms: _477  and  _480
REMARK  178  A    between atoms: _482  and  _484
REMARK  179  A    between atoms: _484  and  _485
REMARK  180  A    between atoms: _487  and  _489
REMARK  181  A    between atoms: _489  and  _490
REMARK  182  A    between atoms: _489  and  _492
REMARK  183  A    between atoms: _492  and  _493
REMARK  184  A    between atoms: _496  and  _498
REMARK  185  A    between atoms: _498  and  _499
REMARK  186  A    between atoms: _498  and  _501
REMARK  187  A    between atoms: _501  and  _502
REMARK  188  A    between atoms: _512  and  _514
REMARK  189  A    between atoms: _514  and  _515
REMARK  190  A    between atoms: _514  and  _517
REMARK  191  A    between atoms: _517  and  _518
REMARK  192  A    between atoms: _521  and  _523
REMARK  193  A    between atoms: _523  and  _524
REMARK  194  A    between atoms: _523  and  _526
REMARK  195  A    between atoms: _526  and  _527
REMARK  196  A    between atoms: _532  and  _533
REMARK  197  A    between atoms: _535  and  _537
REMARK  198  A    between atoms: _537  and  _538
REMARK  199  A    between atoms: _537  and  _540
REMARK  200  A    between atoms: _540  and  _541
REMARK  201  A    between atoms: _544  and  _546
REMARK  202  A    between atoms: _546  and  _547
REMARK  203  A    between atoms: _546  and  _549
REMARK  204  A    between atoms: _549  and  _550
REMARK  205  A    between atoms: _550  and  _551
REMARK  206  A    between atoms: _551  and  _552
REMARK  207  A    between atoms: _561  and  _563
REMARK  208  A    between atoms: _563  and  _564
REMARK  209  A    between atoms: _567  and  _569
REMARK  210  A    between atoms: _569  and  _570
REMARK  211  A    between atoms: _569  and  _572
REMARK  212  A    between atoms: _575  and  _577
REMARK  213  A    between atoms: _577  and  _578
REMARK  214  A    between atoms: _580  and  _582
REMARK  215  A    between atoms: _582  and  _583
REMARK  216  A    between atoms: _582  and  _585
REMARK  217  A    between atoms: _585  and  _586
REMARK  218  A    between atoms: _589  and  _591
REMARK  219  A    between atoms: _591  and  _592
REMARK  220  A    between atoms: _591  and  _594
REMARK  221  A    between atoms: _594  and  _595
REMARK  222  A    between atoms: _601  and  _603
REMARK  223  A    between atoms: _603  and  _604
REMARK                            x       y       z     vdW  Elec       q    Type
REMARK                         _______ _______ _______ _____ _____    ______ ____
ROOT
ATOM      1  O   HOH     1      16.501   5.462  -2.131  0.00  0.00    +0.000 OA
ENDROOT
TORSDOF 0
REMARK  Name = ../refined-set-2016/5alb/5alb_pocket.pdb
REMARK  223 active torsions:
REMARK  status: ('A' for Active; 'I' for Inactive)
REMARK    1  A    between atoms: _1  and  _3
REMARK    2  A    between atoms: _3  and  _4
REMARK    3  A    between atoms: _3  and  _6
REMARK    4  A    between atoms: _6  and  _7
REMARK    5  A    between atoms: _12  and  _13
REMARK    6  A    between atoms: _15  and  _17
REMARK    7  A    between atoms: _17  and  _18
REMARK    8  A    between atoms: _17  and  _20
REMARK    9  A    between atoms: _20  and  _21
REMARK   10  A    between atoms: _23  and  _25
REMARK   11  A    between atoms: _25  and  _26
REMARK   12  A    between atoms: _25  and  _28
REMARK   13  A    between atoms: _28  and  _29
REMARK   14  A    between atoms: _32  and  _34
REMARK   15  A    between atoms: _34  and  _35
REMARK   16  A    between atoms: _34  and  _37
REMARK   17  A    between atoms: _37  and  _38
REMARK   18  A    between atoms: _43  and  _45
REMARK   19  A    between atoms: _45  and  _46
REMARK   20  A    between atoms: _45  and  _48
REMARK   21  A    between atoms: _48  and  _49
REMARK   22  A    between atoms: _59  and  _61
REMARK   23  A    between atoms: _61  and  _62
REMARK   24  A    between atoms: _61  and  _64
REMARK   25  A    between atoms: _67  and  _69
REMARK   26  A    between atoms: _69  and  _70
REMARK   27  A    between atoms: _69  and  _72
REMARK   28  A    between atoms: _72  and  _73
REMARK   29  A    between atoms: _76  and  _78
REMARK   30  A    between atoms: _78  and  _79
REMARK   31  A    between atoms: _78  and  _81
REMARK   32  A    between atoms: _81  and  _82
REMARK   33  A    between atoms: _82  and  _83
REMARK   34  A    between atoms: _86  and  _88
REMARK   35  A    between atoms: _88  and  _89
REMARK   36  A    between atoms: _88  and  _91
REMARK   37  A    between atoms: _91  and  _92
REMARK   38  A    between atoms: _102  and  _104
REMARK   39  A    between atoms: _104  and  _105
REMARK   40  A    between atoms: _104  and  _107
REMARK   41  A    between atoms: _107  and  _108
REMARK   42  A    between atoms: _108  and  _109
REMARK   43  A    between atoms: _111  and  _113
REMARK   44  A    between atoms: _113  and  _114
REMARK   45  A    between atoms: _116  and  _118
REMARK   46  A    between atoms: _118  and  _119
REMARK   47  A    between atoms: _121  and  _123
REMARK   48  A    between atoms: _123  and  _124
REMARK   49  A    between atoms: _123  and  _126
REMARK   50  A    between atoms: _126  and  _127
REMARK   51  A    between atoms: _130  and  _132
REMARK   52  A    between atoms: _132  and  _133
REMARK   53  A    between atoms: _132  and  _135
REMARK   54  A    between atoms: _135  and  _136
REMARK   55  A    between atoms: _140  and  _141
REMARK   56  A    between atoms: _146  and  _148
REMARK   57  A    between atoms: _148  and  _149
REMARK   58  A    between atoms: _148  and  _151
REMARK   59  A    between atoms: _151  and  _152
REMARK   60  A    between atoms: _158  and  _160
REMARK   61  A    between atoms: _160  and  _161
REMARK   62  A    between atoms: _163  and  _165
REMARK   63  A    between atoms: _165  and  _166
REMARK   64  A    between atoms: _165  and  _168
REMARK   65  A    between atoms: _168  and  _169
REMARK   66  A    between atoms: _172  and  _174
REMARK   67  A    between atoms: _174  and  _175
REMARK   68  A    between atoms: _174  and  _177
REMARK   69  A    between atoms: _177  and  _178
REMARK   70  A    between atoms: _181  and  _183
REMARK   71  A    between atoms: _183  and  _184
REMARK   72  A    between atoms: _183  and  _186
REMARK   73  A    between atoms: _186  and  _187
REMARK   74  A    between atoms: _189  and  _191
REMARK   75  A    between atoms: _191  and  _192
REMARK   76  A    between atoms: _191  and  _194
REMARK   77  A    between atoms: _194  and  _195
REMARK   78  A    between atoms: _197  and  _199
REMARK   79  A    between atoms: _199  and  _200
REMARK   80  A    between atoms: _203  and  _205
REMARK   81  A    between atoms: _205  and  _206
REMARK   82  A    between atoms: _205  and  _208
REMARK   83  A    between atoms: _208  and  _209
REMARK   84  A    between atoms: _209  and  _210
REMARK   85  A    between atoms: _210  and  _211
REMARK   86  A    between atoms: _220  and  _222
REMARK   87  A    between atoms: _222  and  _223
REMARK   88  A    between atoms: _225  and  _227
REMARK   89  A    between atoms: _227  and  _228
REMARK   90  A    between atoms: _227  and  _230
REMARK   91  A    between atoms: _230  and  _231
REMARK   92  A    between atoms: _233  and  _235
REMARK   93  A    between atoms: _235  and  _236
REMARK   94  A    between atoms: _235  and  _238
REMARK   95  A    between atoms: _238  and  _239
REMARK   96  A    between atoms: _245  and  _247
REMARK   97  A    between atoms: _247  and  _248
REMARK   98  A    between atoms: _247  and  _250
REMARK   99  A    between atoms: _250  and  _251
REMARK  100  A    between atoms: _256  and  _257
REMARK  101  A    between atoms: _259  and  _261
REMARK  102  A    between atoms: _261  and  _262
REMARK  103  A    between atoms: _261  and  _264
REMARK  104  A    between atoms: _264  and  _265
REMARK  105  A    between atoms: _275  and  _277
REMARK  106  A    between atoms: _277  and  _278
REMARK  107  A    between atoms: _281  and  _283
REMARK  108  A    between atoms: _283  and  _284
REMARK  109  A    between atoms: _283  and  _286
REMARK  110  A    between atoms: _286  and  _287
REMARK  111  A    between atoms: _293  and  _294
REMARK  112  A    between atoms: _300  and  _301
REMARK  113  A    between atoms: _306  and  _308
REMARK  114  A    between atoms: _308  and  _309
REMARK  115  A    between atoms: _308  and  _311
REMARK  116  A    between atoms: _311  and  _312
REMARK  117  A    between atoms: _317  and  _319
REMARK  118  A    between atoms: _319  and  _320
REMARK  119  A    between atoms: _319  and  _322
REMARK  120  A    between atoms: _322  and  _323
REMARK  121  A    between atoms: _326  and  _328
REMARK  122  A    between atoms: _328  and  _329
REMARK  123  A    between atoms: _332  and  _334
REMARK  124  A    between atoms: _334  and  _335
REMARK  125  A    between atoms: _334  and  _337
REMARK  126  A    between atoms: _337  and  _338
REMARK  127  A    between atoms: _341  and  _343
REMARK  128  A    between atoms: _343  and  _344
REMARK  129  A    between atoms: _347  and  _349
REMARK  130  A    between atoms: _349  and  _350
REMARK  131  A    between atoms: _349  and  _352
REMARK  132  A    between atoms: _352  and  _353
REMARK  133  A    between atoms: _363  and  _365
REMARK  134  A    between atoms: _365  and  _366
REMARK  135  A    between atoms: _365  and  _368
REMARK  136  A    between atoms: _368  and  _369
REMARK  137  A    between atoms: _374  and  _376
REMARK  138  A    between atoms: _376  and  _377
REMARK  139  A    between atoms: _376  and  _379
REMARK  140  A    between atoms: _379  and  _380
REMARK  141  A    between atoms: _385  and  _386
REMARK  142  A    between atoms: _388  and  _390
REMARK  143  A    between atoms: _390  and  _391
REMARK  144  A    between atoms: _390  and  _393
REMARK  145  A    between atoms: _396  and  _398
REMARK  146  A    between atoms: _398  and  _399
REMARK  147  A    between atoms: _398  and  _401
REMARK  148  A    between atoms: _401  and  _402
REMARK  149  A    between atoms: _404  and  _406
REMARK  150  A    between atoms: _406  and  _407
REMARK  151  A    between atoms: _406  and  _409
REMARK  152  A    between atoms: _409  and  _410
REMARK  153  A    between atoms: _420  and  _422
REMARK  154  A    between atoms: _422  and  _423
REMARK  155  A    between atoms: _422  and  _425
REMARK  156  A    between atoms: _425  and  _426
REMARK  157  A    between atoms: _431  and  _432
REMARK  158  A    between atoms: _434  and  _436
REMARK  159  A    between atoms: _436  and  _437
REMARK  160  A    between atoms: _436  and  _439
REMARK  161  A    between atoms: _439  and  _440
REMARK  162  A    between atoms: _443  and  _445
REMARK  163  A    between atoms: _445  and  _446
REMARK  164  A    between atoms: _445  and  _448
REMARK  165  A    between atoms: _448  and  _449
REMARK  166  A    between atoms: _452  and  _454
REMARK  167  A    between atoms: _454  and  _455
REMARK  168  A    between atoms: _454  and  _457
REMARK  169  A    between atoms: _457  and  _458
REMARK  170  A    between atoms: _461  and  _463
REMARK  171  A    between atoms: _463  and  _464
REMARK  172  A    between atoms: _463  and  _466
REMARK  173  A    between atoms: _466  and  _467
REMARK  174  A    between atoms: _472  and  _473
REMARK  175  A    between atoms: _475  and  _477
REMARK  176  A    between atoms: _477  and  _478
REMARK  177  A    between atoms: _477  and  _480
REMARK  178  A    between atoms: _482  and  _484
REMARK  179  A    between atoms: _484  and  _485
REMARK  180  A    between atoms: _487  and  _489
REMARK  181  A    between atoms: _489  and  _490
REMARK  182  A    between atoms: _489  and  _492
REMARK  183  A    between atoms: _492  and  _493
REMARK  184  A    between atoms: _496  and  _498
REMARK  185  A    between atoms: _498  and  _499
REMARK  186  A    between atoms: _498  and  _501
REMARK  187  A    between atoms: _501  and  _502
REMARK  188  A    between atoms: _512  and  _514
REMARK  189  A    between atoms: _514  and  _515
REMARK  190  A    between atoms: _514  and  _517
REMARK  191  A    between atoms: _517  and  _518
REMARK  192  A    between atoms: _521  and  _523
REMARK  193  A    between atoms: _523  and  _524
REMARK  194  A    between atoms: _523  and  _526
REMARK  195  A    between atoms: _526  and  _527
REMARK  196  A    between atoms: _532  and  _533
REMARK  197  A    between atoms: _535  and  _537
REMARK  198  A    between atoms: _537  and  _538
REMARK  199  A    between atoms: _537  and  _540
REMARK  200  A    between atoms: _540  and  _541
REMARK  201  A    between atoms: _544  and  _546
REMARK  202  A    between atoms: _546  and  _547
REMARK  203  A    between atoms: _546  and  _549
REMARK  204  A    between atoms: _549  and  _550
REMARK  205  A    between atoms: _550  and  _551
REMARK  206  A    between atoms: _551  and  _552
REMARK  207  A    between atoms: _561  and  _563
REMARK  208  A    between atoms: _563  and  _564
REMARK  209  A    between atoms: _567  and  _569
REMARK  210  A    between atoms: _569  and  _570
REMARK  211  A    between atoms: _569  and  _572
REMARK  212  A    between atoms: _575  and  _577
REMARK  213  A    between atoms: _577  and  _578
REMARK  214  A    between atoms: _580  and  _582
REMARK  215  A    between atoms: _582  and  _583
REMARK  216  A    between atoms: _582  and  _585
REMARK  217  A    between atoms: _585  and  _586
REMARK  218  A    between atoms: _589  and  _591
REMARK  219  A    between atoms: _591  and  _592
REMARK  220  A    between atoms: _591  and  _594
REMARK  221  A    between atoms: _594  and  _595
REMARK  222  A    between atoms: _601  and  _603
REMARK  223  A    between atoms: _603  and  _604
REMARK                            x       y       z     vdW  Elec       q    Type
REMARK                         _______ _______ _______ _____ _____    ______ ____
ROOT
ATOM      1  O   HOH     1      15.736   5.346   0.491  0.00  0.00    +0.000 OA
ENDROOT
TORSDOF 0
REMARK  Name = ../refined-set-2016/5alb/5alb_pocket.pdb
REMARK  223 active torsions:
REMARK  status: ('A' for Active; 'I' for Inactive)
REMARK    1  A    between atoms: _1  and  _3
REMARK    2  A    between atoms: _3  and  _4
REMARK    3  A    between atoms: _3  and  _6
REMARK    4  A    between atoms: _6  and  _7
REMARK    5  A    between atoms: _12  and  _13
REMARK    6  A    between atoms: _15  and  _17
REMARK    7  A    between atoms: _17  and  _18
REMARK    8  A    between atoms: _17  and  _20
REMARK    9  A    between atoms: _20  and  _21
REMARK   10  A    between atoms: _23  and  _25
REMARK   11  A    between atoms: _25  and  _26
REMARK   12  A    between atoms: _25  and  _28
REMARK   13  A    between atoms: _28  and  _29
REMARK   14  A    between atoms: _32  and  _34
REMARK   15  A    between atoms: _34  and  _35
REMARK   16  A    between atoms: _34  and  _37
REMARK   17  A    between atoms: _37  and  _38
REMARK   18  A    between atoms: _43  and  _45
REMARK   19  A    between atoms: _45  and  _46
REMARK   20  A    between atoms: _45  and  _48
REMARK   21  A    between atoms: _48  and  _49
REMARK   22  A    between atoms: _59  and  _61
REMARK   23  A    between atoms: _61  and  _62
REMARK   24  A    between atoms: _61  and  _64
REMARK   25  A    between atoms: _67  and  _69
REMARK   26  A    between atoms: _69  and  _70
REMARK   27  A    between atoms: _69  and  _72
REMARK   28  A    between atoms: _72  and  _73
REMARK   29  A    between atoms: _76  and  _78
REMARK   30  A    between atoms: _78  and  _79
REMARK   31  A    between atoms: _78  and  _81
REMARK   32  A    between atoms: _81  and  _82
REMARK   33  A    between atoms: _82  and  _83
REMARK   34  A    between atoms: _86  and  _88
REMARK   35  A    between atoms: _88  and  _89
REMARK   36  A    between atoms: _88  and  _91
REMARK   37  A    between atoms: _91  and  _92
REMARK   38  A    between atoms: _102  and  _104
REMARK   39  A    between atoms: _104  and  _105
REMARK   40  A    between atoms: _104  and  _107
REMARK   41  A    between atoms: _107  and  _108
REMARK   42  A    between atoms: _108  and  _109
REMARK   43  A    between atoms: _111  and  _113
REMARK   44  A    between atoms: _113  and  _114
REMARK   45  A    between atoms: _116  and  _118
REMARK   46  A    between atoms: _118  and  _119
REMARK   47  A    between atoms: _121  and  _123
REMARK   48  A    between atoms: _123  and  _124
REMARK   49  A    between atoms: _123  and  _126
REMARK   50  A    between atoms: _126  and  _127
REMARK   51  A    between atoms: _130  and  _132
REMARK   52  A    between atoms: _132  and  _133
REMARK   53  A    between atoms: _132  and  _135
REMARK   54  A    between atoms: _135  and  _136
REMARK   55  A    between atoms: _140  and  _141
REMARK   56  A    between atoms: _146  and  _148
REMARK   57  A    between atoms: _148  and  _149
REMARK   58  A    between atoms: _148  and  _151
REMARK   59  A    between atoms: _151  and  _152
REMARK   60  A    between atoms: _158  and  _160
REMARK   61  A    between atoms: _160  and  _161
REMARK   62  A    between atoms: _163  and  _165
REMARK   63  A    between atoms: _165  and  _166
REMARK   64  A    between atoms: _165  and  _168
REMARK   65  A    between atoms: _168  and  _169
REMARK   66  A    between atoms: _172  and  _174
REMARK   67  A    between atoms: _174  and  _175
REMARK   68  A    between atoms: _174  and  _177
REMARK   69  A    between atoms: _177  and  _178
REMARK   70  A    between atoms: _181  and  _183
REMARK   71  A    between atoms: _183  and  _184
REMARK   72  A    between atoms: _183  and  _186
REMARK   73  A    between atoms: _186  and  _187
REMARK   74  A    between atoms: _189  and  _191
REMARK   75  A    between atoms: _191  and  _192
REMARK   76  A    between atoms: _191  and  _194
REMARK   77  A    between atoms: _194  and  _195
REMARK   78  A    between atoms: _197  and  _199
REMARK   79  A    between atoms: _199  and  _200
REMARK   80  A    between atoms: _203  and  _205
REMARK   81  A    between atoms: _205  and  _206
REMARK   82  A    between atoms: _205  and  _208
REMARK   83  A    between atoms: _208  and  _209
REMARK   84  A    between atoms: _209  and  _210
REMARK   85  A    between atoms: _210  and  _211
REMARK   86  A    between atoms: _220  and  _222
REMARK   87  A    between atoms: _222  and  _223
REMARK   88  A    between atoms: _225  and  _227
REMARK   89  A    between atoms: _227  and  _228
REMARK   90  A    between atoms: _227  and  _230
REMARK   91  A    between atoms: _230  and  _231
REMARK   92  A    between atoms: _233  and  _235
REMARK   93  A    between atoms: _235  and  _236
REMARK   94  A    between atoms: _235  and  _238
REMARK   95  A    between atoms: _238  and  _239
REMARK   96  A    between atoms: _245  and  _247
REMARK   97  A    between atoms: _247  and  _248
REMARK   98  A    between atoms: _247  and  _250
REMARK   99  A    between atoms: _250  and  _251
REMARK  100  A    between atoms: _256  and  _257
REMARK  101  A    between atoms: _259  and  _261
REMARK  102  A    between atoms: _261  and  _262
REMARK  103  A    between atoms: _261  and  _264
REMARK  104  A    between atoms: _264  and  _265
REMARK  105  A    between atoms: _275  and  _277
REMARK  106  A    between atoms: _277  and  _278
REMARK  107  A    between atoms: _281  and  _283
REMARK  108  A    between atoms: _283  and  _284
REMARK  109  A    between atoms: _283  and  _286
REMARK  110  A    between atoms: _286  and  _287
REMARK  111  A    between atoms: _293  and  _294
REMARK  112  A    between atoms: _300  and  _301
REMARK  113  A    between atoms: _306  and  _308
REMARK  114  A    between atoms: _308  and  _309
REMARK  115  A    between atoms: _308  and  _311
REMARK  116  A    between atoms: _311  and  _312
REMARK  117  A    between atoms: _317  and  _319
REMARK  118  A    between atoms: _319  and  _320
REMARK  119  A    between atoms: _319  and  _322
REMARK  120  A    between atoms: _322  and  _323
REMARK  121  A    between atoms: _326  and  _328
REMARK  122  A    between atoms: _328  and  _329
REMARK  123  A    between atoms: _332  and  _334
REMARK  124  A    between atoms: _334  and  _335
REMARK  125  A    between atoms: _334  and  _337
REMARK  126  A    between atoms: _337  and  _338
REMARK  127  A    between atoms: _341  and  _343
REMARK  128  A    between atoms: _343  and  _344
REMARK  129  A    between atoms: _347  and  _349
REMARK  130  A    between atoms: _349  and  _350
REMARK  131  A    between atoms: _349  and  _352
REMARK  132  A    between atoms: _352  and  _353
REMARK  133  A    between atoms: _363  and  _365
REMARK  134  A    between atoms: _365  and  _366
REMARK  135  A    between atoms: _365  and  _368
REMARK  136  A    between atoms: _368  and  _369
REMARK  137  A    between atoms: _374  and  _376
REMARK  138  A    between atoms: _376  and  _377
REMARK  139  A    between atoms: _376  and  _379
REMARK  140  A    between atoms: _379  and  _380
REMARK  141  A    between atoms: _385  and  _386
REMARK  142  A    between atoms: _388  and  _390
REMARK  143  A    between atoms: _390  and  _391
REMARK  144  A    between atoms: _390  and  _393
REMARK  145  A    between atoms: _396  and  _398
REMARK  146  A    between atoms: _398  and  _399
REMARK  147  A    between atoms: _398  and  _401
REMARK  148  A    between atoms: _401  and  _402
REMARK  149  A    between atoms: _404  and  _406
REMARK  150  A    between atoms: _406  and  _407
REMARK  151  A    between atoms: _406  and  _409
REMARK  152  A    between atoms: _409  and  _410
REMARK  153  A    between atoms: _420  and  _422
REMARK  154  A    between atoms: _422  and  _423
REMARK  155  A    between atoms: _422  and  _425
REMARK  156  A    between atoms: _425  and  _426
REMARK  157  A    between atoms: _431  and  _432
REMARK  158  A    between atoms: _434  and  _436
REMARK  159  A    between atoms: _436  and  _437
REMARK  160  A    between atoms: _436  and  _439
REMARK  161  A    between atoms: _439  and  _440
REMARK  162  A    between atoms: _443  and  _445
REMARK  163  A    between atoms: _445  and  _446
REMARK  164  A    between atoms: _445  and  _448
REMARK  165  A    between atoms: _448  and  _449
REMARK  166  A    between atoms: _452  and  _454
REMARK  167  A    between atoms: _454  and  _455
REMARK  168  A    between atoms: _454  and  _457
REMARK  169  A    between atoms: _457  and  _458
REMARK  170  A    between atoms: _461  and  _463
REMARK  171  A    between atoms: _463  and  _464
REMARK  172  A    between atoms: _463  and  _466
REMARK  173  A    between atoms: _466  and  _467
REMARK  174  A    between atoms: _472  and  _473
REMARK  175  A    between atoms: _475  and  _477
REMARK  176  A    between atoms: _477  and  _478
REMARK  177  A    between atoms: _477  and  _480
REMARK  178  A    between atoms: _482  and  _484
REMARK  179  A    between atoms: _484  and  _485
REMARK  180  A    between atoms: _487  and  _489
REMARK  181  A    between atoms: _489  and  _490
REMARK  182  A    between atoms: _489  and  _492
REMARK  183  A    between atoms: _492  and  _493
REMARK  184  A    between atoms: _496  and  _498
REMARK  185  A    between atoms: _498  and  _499
REMARK  186  A    between atoms: _498  and  _501
REMARK  187  A    between atoms: _501  and  _502
REMARK  188  A    between atoms: _512  and  _514
REMARK  189  A    between atoms: _514  and  _515
REMARK  190  A    between atoms: _514  and  _517
REMARK  191  A    between atoms: _517  and  _518
REMARK  192  A    between atoms: _521  and  _523
REMARK  193  A    between atoms: _523  and  _524
REMARK  194  A    between atoms: _523  and  _526
REMARK  195  A    between atoms: _526  and  _527
REMARK  196  A    between atoms: _532  and  _533
REMARK  197  A    between atoms: _535  and  _537
REMARK  198  A    between atoms: _537  and  _538
REMARK  199  A    between atoms: _537  and  _540
REMARK  200  A    between atoms: _540  and  _541
REMARK  201  A    between atoms: _544  and  _546
REMARK  202  A    between atoms: _546  and  _547
REMARK  203  A    between atoms: _546  and  _549
REMARK  204  A    between atoms: _549  and  _550
REMARK  205  A    between atoms: _550  and  _551
REMARK  206  A    between atoms: _551  and  _552
REMARK  207  A    between atoms: _561  and  _563
REMARK  208  A    between atoms: _563  and  _564
REMARK  209  A    between atoms: _567  and  _569
REMARK  210  A    between atoms: _569  and  _570
REMARK  211  A    between atoms: _569  and  _572
REMARK  212  A    between atoms: _575  and  _577
REMARK  213  A    between atoms: _577  and  _578
REMARK  214  A    between atoms: _580  and  _582
REMARK  215  A    between atoms: _582  and  _583
REMARK  216  A    between atoms: _582  and  _585
REMARK  217  A    between atoms: _585  and  _586
REMARK  218  A    between atoms: _589  and  _591
REMARK  219  A    between atoms: _591  and  _592
REMARK  220  A    between atoms: _591  and  _594
REMARK  221  A    between atoms: _594  and  _595
REMARK  222  A    between atoms: _601  and  _603
REMARK  223  A    between atoms: _603  and  _604
REMARK                            x       y       z     vdW  Elec       q    Type
REMARK                         _______ _______ _______ _____ _____    ______ ____
ROOT
ATOM      1  O   HOH     1       3.148  -2.065   1.954  0.00  0.00    +0.000 OA
ENDROOT
TORSDOF 0
REMARK  Name = ../refined-set-2016/5alb/5alb_pocket.pdb
REMARK  223 active torsions:
REMARK  status: ('A' for Active; 'I' for Inactive)
REMARK    1  A    between atoms: _1  and  _3
REMARK    2  A    between atoms: _3  and  _4
REMARK    3  A    between atoms: _3  and  _6
REMARK    4  A    between atoms: _6  and  _7
REMARK    5  A    between atoms: _12  and  _13
REMARK    6  A    between atoms: _15  and  _17
REMARK    7  A    between atoms: _17  and  _18
REMARK    8  A    between atoms: _17  and  _20
REMARK    9  A    between atoms: _20  and  _21
REMARK   10  A    between atoms: _23  and  _25
REMARK   11  A    between atoms: _25  and  _26
REMARK   12  A    between atoms: _25  and  _28
REMARK   13  A    between atoms: _28  and  _29
REMARK   14  A    between atoms: _32  and  _34
REMARK   15  A    between atoms: _34  and  _35
REMARK   16  A    between atoms: _34  and  _37
REMARK   17  A    between atoms: _37  and  _38
REMARK   18  A    between atoms: _43  and  _45
REMARK   19  A    between atoms: _45  and  _46
REMARK   20  A    between atoms: _45  and  _48
REMARK   21  A    between atoms: _48  and  _49
REMARK   22  A    between atoms: _59  and  _61
REMARK   23  A    between atoms: _61  and  _62
REMARK   24  A    between atoms: _61  and  _64
REMARK   25  A    between atoms: _67  and  _69
REMARK   26  A    between atoms: _69  and  _70
REMARK   27  A    between atoms: _69  and  _72
REMARK   28  A    between atoms: _72  and  _73
REMARK   29  A    between atoms: _76  and  _78
REMARK   30  A    between atoms: _78  and  _79
REMARK   31  A    between atoms: _78  and  _81
REMARK   32  A    between atoms: _81  and  _82
REMARK   33  A    between atoms: _82  and  _83
REMARK   34  A    between atoms: _86  and  _88
REMARK   35  A    between atoms: _88  and  _89
REMARK   36  A    between atoms: _88  and  _91
REMARK   37  A    between atoms: _91  and  _92
REMARK   38  A    between atoms: _102  and  _104
REMARK   39  A    between atoms: _104  and  _105
REMARK   40  A    between atoms: _104  and  _107
REMARK   41  A    between atoms: _107  and  _108
REMARK   42  A    between atoms: _108  and  _109
REMARK   43  A    between atoms: _111  and  _113
REMARK   44  A    between atoms: _113  and  _114
REMARK   45  A    between atoms: _116  and  _118
REMARK   46  A    between atoms: _118  and  _119
REMARK   47  A    between atoms: _121  and  _123
REMARK   48  A    between atoms: _123  and  _124
REMARK   49  A    between atoms: _123  and  _126
REMARK   50  A    between atoms: _126  and  _127
REMARK   51  A    between atoms: _130  and  _132
REMARK   52  A    between atoms: _132  and  _133
REMARK   53  A    between atoms: _132  and  _135
REMARK   54  A    between atoms: _135  and  _136
REMARK   55  A    between atoms: _140  and  _141
REMARK   56  A    between atoms: _146  and  _148
REMARK   57  A    between atoms: _148  and  _149
REMARK   58  A    between atoms: _148  and  _151
REMARK   59  A    between atoms: _151  and  _152
REMARK   60  A    between atoms: _158  and  _160
REMARK   61  A    between atoms: _160  and  _161
REMARK   62  A    between atoms: _163  and  _165
REMARK   63  A    between atoms: _165  and  _166
REMARK   64  A    between atoms: _165  and  _168
REMARK   65  A    between atoms: _168  and  _169
REMARK   66  A    between atoms: _172  and  _174
REMARK   67  A    between atoms: _174  and  _175
REMARK   68  A    between atoms: _174  and  _177
REMARK   69  A    between atoms: _177  and  _178
REMARK   70  A    between atoms: _181  and  _183
REMARK   71  A    between atoms: _183  and  _184
REMARK   72  A    between atoms: _183  and  _186
REMARK   73  A    between atoms: _186  and  _187
REMARK   74  A    between atoms: _189  and  _191
REMARK   75  A    between atoms: _191  and  _192
REMARK   76  A    between atoms: _191  and  _194
REMARK   77  A    between atoms: _194  and  _195
REMARK   78  A    between atoms: _197  and  _199
REMARK   79  A    between atoms: _199  and  _200
REMARK   80  A    between atoms: _203  and  _205
REMARK   81  A    between atoms: _205  and  _206
REMARK   82  A    between atoms: _205  and  _208
REMARK   83  A    between atoms: _208  and  _209
REMARK   84  A    between atoms: _209  and  _210
REMARK   85  A    between atoms: _210  and  _211
REMARK   86  A    between atoms: _220  and  _222
REMARK   87  A    between atoms: _222  and  _223
REMARK   88  A    between atoms: _225  and  _227
REMARK   89  A    between atoms: _227  and  _228
REMARK   90  A    between atoms: _227  and  _230
REMARK   91  A    between atoms: _230  and  _231
REMARK   92  A    between atoms: _233  and  _235
REMARK   93  A    between atoms: _235  and  _236
REMARK   94  A    between atoms: _235  and  _238
REMARK   95  A    between atoms: _238  and  _239
REMARK   96  A    between atoms: _245  and  _247
REMARK   97  A    between atoms: _247  and  _248
REMARK   98  A    between atoms: _247  and  _250
REMARK   99  A    between atoms: _250  and  _251
REMARK  100  A    between atoms: _256  and  _257
REMARK  101  A    between atoms: _259  and  _261
REMARK  102  A    between atoms: _261  and  _262
REMARK  103  A    between atoms: _261  and  _264
REMARK  104  A    between atoms: _264  and  _265
REMARK  105  A    between atoms: _275  and  _277
REMARK  106  A    between atoms: _277  and  _278
REMARK  107  A    between atoms: _281  and  _283
REMARK  108  A    between atoms: _283  and  _284
REMARK  109  A    between atoms: _283  and  _286
REMARK  110  A    between atoms: _286  and  _287
REMARK  111  A    between atoms: _293  and  _294
REMARK  112  A    between atoms: _300  and  _301
REMARK  113  A    between atoms: _306  and  _308
REMARK  114  A    between atoms: _308  and  _309
REMARK  115  A    between atoms: _308  and  _311
REMARK  116  A    between atoms: _311  and  _312
REMARK  117  A    between atoms: _317  and  _319
REMARK  118  A    between atoms: _319  and  _320
REMARK  119  A    between atoms: _319  and  _322
REMARK  120  A    between atoms: _322  and  _323
REMARK  121  A    between atoms: _326  and  _328
REMARK  122  A    between atoms: _328  and  _329
REMARK  123  A    between atoms: _332  and  _334
REMARK  124  A    between atoms: _334  and  _335
REMARK  125  A    between atoms: _334  and  _337
REMARK  126  A    between atoms: _337  and  _338
REMARK  127  A    between atoms: _341  and  _343
REMARK  128  A    between atoms: _343  and  _344
REMARK  129  A    between atoms: _347  and  _349
REMARK  130  A    between atoms: _349  and  _350
REMARK  131  A    between atoms: _349  and  _352
REMARK  132  A    between atoms: _352  and  _353
REMARK  133  A    between atoms: _363  and  _365
REMARK  134  A    between atoms: _365  and  _366
REMARK  135  A    between atoms: _365  and  _368
REMARK  136  A    between atoms: _368  and  _369
REMARK  137  A    between atoms: _374  and  _376
REMARK  138  A    between atoms: _376  and  _377
REMARK  139  A    between atoms: _376  and  _379
REMARK  140  A    between atoms: _379  and  _380
REMARK  141  A    between atoms: _385  and  _386
REMARK  142  A    between atoms: _388  and  _390
REMARK  143  A    between atoms: _390  and  _391
REMARK  144  A    between atoms: _390  and  _393
REMARK  145  A    between atoms: _396  and  _398
REMARK  146  A    between atoms: _398  and  _399
REMARK  147  A    between atoms: _398  and  _401
REMARK  148  A    between atoms: _401  and  _402
REMARK  149  A    between atoms: _404  and  _406
REMARK  150  A    between atoms: _406  and  _407
REMARK  151  A    between atoms: _406  and  _409
REMARK  152  A    between atoms: _409  and  _410
REMARK  153  A    between atoms: _420  and  _422
REMARK  154  A    between atoms: _422  and  _423
REMARK  155  A    between atoms: _422  and  _425
REMARK  156  A    between atoms: _425  and  _426
REMARK  157  A    between atoms: _431  and  _432
REMARK  158  A    between atoms: _434  and  _436
REMARK  159  A    between atoms: _436  and  _437
REMARK  160  A    between atoms: _436  and  _439
REMARK  161  A    between atoms: _439  and  _440
REMARK  162  A    between atoms: _443  and  _445
REMARK  163  A    between atoms: _445  and  _446
REMARK  164  A    between atoms: _445  and  _448
REMARK  165  A    between atoms: _448  and  _449
REMARK  166  A    between atoms: _452  and  _454
REMARK  167  A    between atoms: _454  and  _455
REMARK  168  A    between atoms: _454  and  _457
REMARK  169  A    between atoms: _457  and  _458
REMARK  170  A    between atoms: _461  and  _463
REMARK  171  A    between atoms: _463  and  _464
REMARK  172  A    between atoms: _463  and  _466
REMARK  173  A    between atoms: _466  and  _467
REMARK  174  A    between atoms: _472  and  _473
REMARK  175  A    between atoms: _475  and  _477
REMARK  176  A    between atoms: _477  and  _478
REMARK  177  A    between atoms: _477  and  _480
REMARK  178  A    between atoms: _482  and  _484
REMARK  179  A    between atoms: _484  and  _485
REMARK  180  A    between atoms: _487  and  _489
REMARK  181  A    between atoms: _489  and  _490
REMARK  182  A    between atoms: _489  and  _492
REMARK  183  A    between atoms: _492  and  _493
REMARK  184  A    between atoms: _496  and  _498
REMARK  185  A    between atoms: _498  and  _499
REMARK  186  A    between atoms: _498  and  _501
REMARK  187  A    between atoms: _501  and  _502
REMARK  188  A    between atoms: _512  and  _514
REMARK  189  A    between atoms: _514  and  _515
REMARK  190  A    between atoms: _514  and  _517
REMARK  191  A    between atoms: _517  and  _518
REMARK  192  A    between atoms: _521  and  _523
REMARK  193  A    between atoms: _523  and  _524
REMARK  194  A    between atoms: _523  and  _526
REMARK  195  A    between atoms: _526  and  _527
REMARK  196  A    between atoms: _532  and  _533
REMARK  197  A    between atoms: _535  and  _537
REMARK  198  A    between atoms: _537  and  _538
REMARK  199  A    between atoms: _537  and  _540
REMARK  200  A    between atoms: _540  and  _541
REMARK  201  A    between atoms: _544  and  _546
REMARK  202  A    between atoms: _546  and  _547
REMARK  203  A    between atoms: _546  and  _549
REMARK  204  A    between atoms: _549  and  _550
REMARK  205  A    between atoms: _550  and  _551
REMARK  206  A    between atoms: _551  and  _552
REMARK  207  A    between atoms: _561  and  _563
REMARK  208  A    between atoms: _563  and  _564
REMARK  209  A    between atoms: _567  and  _569
REMARK  210  A    between atoms: _569  and  _570
REMARK  211  A    between atoms: _569  and  _572
REMARK  212  A    between atoms: _575  and  _577
REMARK  213  A    between atoms: _577  and  _578
REMARK  214  A    between atoms: _580  and  _582
REMARK  215  A    between atoms: _582  and  _583
REMARK  216  A    between atoms: _582  and  _585
REMARK  217  A    between atoms: _585  and  _586
REMARK  218  A    between atoms: _589  and  _591
REMARK  219  A    between atoms: _591  and  _592
REMARK  220  A    between atoms: _591  and  _594
REMARK  221  A    between atoms: _594  and  _595
REMARK  222  A    between atoms: _601  and  _603
REMARK  223  A    between atoms: _603  and  _604
REMARK                            x       y       z     vdW  Elec       q    Type
REMARK                         _______ _______ _______ _____ _____    ______ ____
ROOT
ATOM      1  O   HOH     1       8.948   3.459  11.414  0.00  0.00    +0.000 OA
ENDROOT
TORSDOF 0
