REMARK  Name = ../refined-set-2016/3kwa/3kwa_pocket.pdb
REMARK  147 active torsions:
REMARK  status: ('A' for Active; 'I' for Inactive)
REMARK    1  A    between atoms: _1  and  _3
REMARK    2  A    between atoms: _3  and  _4
REMARK    3  A    between atoms: _3  and  _6
REMARK    4  A    between atoms: _6  and  _7
REMARK    5  A    between atoms: _17  and  _19
REMARK    6  A    between atoms: _19  and  _20
REMARK    7  A    between atoms: _19  and  _22
REMARK    8  A    between atoms: _22  and  _23
REMARK    9  A    between atoms: _28  and  _29
REMARK   10  A    between atoms: _31  and  _33
REMARK   11  A    between atoms: _33  and  _34
REMARK   12  A    between atoms: _33  and  _36
REMARK   13  A    between atoms: _36  and  _37
REMARK   14  A    between atoms: _40  and  _41
REMARK   15  A    between atoms: _46  and  _48
REMARK   16  A    between atoms: _48  and  _49
REMARK   17  A    between atoms: _48  and  _51
REMARK   18  A    between atoms: _51  and  _52
REMARK   19  A    between atoms: _57  and  _59
REMARK   20  A    between atoms: _59  and  _60
REMARK   21  A    between atoms: _59  and  _62
REMARK   22  A    between atoms: _62  and  _63
REMARK   23  A    between atoms: _68  and  _70
REMARK   24  A    between atoms: _70  and  _71
REMARK   25  A    between atoms: _74  and  _76
REMARK   26  A    between atoms: _76  and  _77
REMARK   27  A    between atoms: _76  and  _79
REMARK   28  A    between atoms: _79  and  _80
REMARK   29  A    between atoms: _86  and  _88
REMARK   30  A    between atoms: _88  and  _89
REMARK   31  A    between atoms: _88  and  _91
REMARK   32  A    between atoms: _91  and  _92
REMARK   33  A    between atoms: _97  and  _99
REMARK   34  A    between atoms: _99  and  _100
REMARK   35  A    between atoms: _99  and  _102
REMARK   36  A    between atoms: _102  and  _103
REMARK   37  A    between atoms: _106  and  _108
REMARK   38  A    between atoms: _108  and  _109
REMARK   39  A    between atoms: _108  and  _111
REMARK   40  A    between atoms: _111  and  _112
REMARK   41  A    between atoms: _112  and  _113
REMARK   42  A    between atoms: _118  and  _120
REMARK   43  A    between atoms: _120  and  _121
REMARK   44  A    between atoms: _120  and  _123
REMARK   45  A    between atoms: _123  and  _124
REMARK   46  A    between atoms: _130  and  _132
REMARK   47  A    between atoms: _143  and  _146
REMARK   48  A    between atoms: _146  and  _147
REMARK   49  A    between atoms: _155  and  _156
REMARK   50  A    between atoms: _164  and  _166
REMARK   51  A    between atoms: _166  and  _167
REMARK   52  A    between atoms: _166  and  _169
REMARK   53  A    between atoms: _169  and  _170
REMARK   54  A    between atoms: _170  and  _171
REMARK   55  A    between atoms: _174  and  _176
REMARK   56  A    between atoms: _176  and  _177
REMARK   57  A    between atoms: _176  and  _179
REMARK   58  A    between atoms: _179  and  _180
REMARK   59  A    between atoms: _185  and  _187
REMARK   60  A    between atoms: _187  and  _188
REMARK   61  A    between atoms: _187  and  _190
REMARK   62  A    between atoms: _190  and  _191
REMARK   63  A    between atoms: _191  and  _192
REMARK   64  A    between atoms: _195  and  _197
REMARK   65  A    between atoms: _197  and  _198
REMARK   66  A    between atoms: _197  and  _200
REMARK   67  A    between atoms: _200  and  _201
REMARK   68  A    between atoms: _204  and  _206
REMARK   69  A    between atoms: _206  and  _207
REMARK   70  A    between atoms: _206  and  _209
REMARK   71  A    between atoms: _209  and  _210
REMARK   72  A    between atoms: _211  and  ZN_415
REMARK   73  A    between atoms: _215  and  _217
REMARK   74  A    between atoms: _217  and  _218
REMARK   75  A    between atoms: _217  and  _220
REMARK   76  A    between atoms: _220  and  _221
REMARK   77  A    between atoms: _224  and  _226
REMARK   78  A    between atoms: _226  and  _227
REMARK   79  A    between atoms: _226  and  _229
REMARK   80  A    between atoms: _232  and  _234
REMARK   81  A    between atoms: _234  and  _235
REMARK   82  A    between atoms: _234  and  _237
REMARK   83  A    between atoms: _237  and  _238
REMARK   84  A    between atoms: _243  and  _245
REMARK   85  A    between atoms: _245  and  _246
REMARK   86  A    between atoms: _245  and  _248
REMARK   87  A    between atoms: _248  and  _249
REMARK   88  A    between atoms: _255  and  _257
REMARK   89  A    between atoms: _257  and  _258
REMARK   90  A    between atoms: _257  and  _260
REMARK   91  A    between atoms: _263  and  _265
REMARK   92  A    between atoms: _265  and  _266
REMARK   93  A    between atoms: _265  and  _268
REMARK   94  A    between atoms: _268  and  _269
REMARK   95  A    between atoms: _272  and  _274
REMARK   96  A    between atoms: _274  and  _275
REMARK   97  A    between atoms: _278  and  _280
REMARK   98  A    between atoms: _280  and  _281
REMARK   99  A    between atoms: _280  and  _283
REMARK  100  A    between atoms: _286  and  _288
REMARK  101  A    between atoms: _288  and  _289
REMARK  102  A    between atoms: _288  and  _291
REMARK  103  A    between atoms: _291  and  _292
REMARK  104  A    between atoms: _295  and  _297
REMARK  105  A    between atoms: _297  and  _298
REMARK  106  A    between atoms: _300  and  _302
REMARK  107  A    between atoms: _302  and  _303
REMARK  108  A    between atoms: _302  and  _305
REMARK  109  A    between atoms: _305  and  _306
REMARK  110  A    between atoms: _308  and  _310
REMARK  111  A    between atoms: _310  and  _311
REMARK  112  A    between atoms: _310  and  _313
REMARK  113  A    between atoms: _313  and  _314
REMARK  114  A    between atoms: _317  and  _319
REMARK  115  A    between atoms: _319  and  _320
REMARK  116  A    between atoms: _319  and  _322
REMARK  117  A    between atoms: _322  and  _323
REMARK  118  A    between atoms: _326  and  _328
REMARK  119  A    between atoms: _328  and  _329
REMARK  120  A    between atoms: _328  and  _331
REMARK  121  A    between atoms: _331  and  _332
REMARK  122  A    between atoms: _336  and  _337
REMARK  123  A    between atoms: _343  and  _344
REMARK  124  A    between atoms: _349  and  _351
REMARK  125  A    between atoms: _351  and  _352
REMARK  126  A    between atoms: _351  and  _354
REMARK  127  A    between atoms: _354  and  _355
REMARK  128  A    between atoms: _358  and  _360
REMARK  129  A    between atoms: _360  and  _361
REMARK  130  A    between atoms: _360  and  _363
REMARK  131  A    between atoms: _363  and  _364
REMARK  132  A    between atoms: _367  and  _369
REMARK  133  A    between atoms: _369  and  _370
REMARK  134  A    between atoms: _369  and  _372
REMARK  135  A    between atoms: _374  and  _376
REMARK  136  A    between atoms: _376  and  _377
REMARK  137  A    between atoms: _376  and  _379
REMARK  138  A    between atoms: _382  and  _384
REMARK  139  A    between atoms: _384  and  _385
REMARK  140  A    between atoms: _384  and  _387
REMARK  141  A    between atoms: _387  and  _388
REMARK  142  A    between atoms: _398  and  _400
REMARK  143  A    between atoms: _400  and  _401
REMARK  144  A    between atoms: _400  and  _403
REMARK  145  A    between atoms: _403  and  _404
REMARK  146  A    between atoms: _404  and  _405
REMARK  147  A    between atoms: _405  and  _406
REMARK                            x       y       z     vdW  Elec       q    Type
REMARK                         _______ _______ _______ _____ _____    ______ ____
ROOT
ATOM      1  CG  TRP A   1       5.416   0.052  12.024  0.00  0.00    -0.002 A 
ATOM      2  CD2 TRP A   1       4.071  -0.442  11.957  0.00  0.00    +0.013 A 
ATOM      3  CE3 TRP A   1       3.482  -1.692  12.208  0.00  0.00    +0.001 A 
ATOM      4  CZ3 TRP A   1       2.120  -1.829  12.034  0.00  0.00    +0.000 A 
ATOM      5  CH2 TRP A   1       1.338  -0.747  11.634  0.00  0.00    +0.001 A 
ATOM      6  CZ2 TRP A   1       1.883   0.482  11.366  0.00  0.00    +0.017 A 
ATOM      7  CE2 TRP A   1       3.254   0.626  11.547  0.00  0.00    +0.056 A 
ATOM      8  NE1 TRP A   1       4.060   1.724  11.379  0.00  0.00    -0.352 N 
ATOM      9  HE1 TRP A   1       3.741   2.667  11.078  0.00  0.00    +0.166 HD
ATOM     10  CD1 TRP A   1       5.354   1.376  11.672  0.00  0.00    +0.068 A 
ENDROOT
BRANCH   1  11
ATOM     11  CB  TRP A   1       6.643  -0.735  12.438  0.00  0.00    +0.053 C 
BRANCH  11  12
ATOM     12  CA  TRP A   1       7.379  -1.410  11.278  0.00  0.00    +0.137 C 
BRANCH  12  13
ATOM     13  N   TRP A   1       8.102  -0.419  10.500  0.00  0.00    -0.239 NA
ATOM     14  H   TRP A   1       7.958   0.587  10.722  0.00  0.00    +0.142 HD
ENDBRANCH  12  13
BRANCH  12  15
ATOM     15  C   TRP A   1       6.419  -2.267  10.458  0.00  0.00    +0.224 C 
ATOM     16  O   TRP A   1       5.784  -1.794   9.491  0.00  0.00    -0.287 OA
ENDBRANCH  12  15
ENDBRANCH  11  12
ENDBRANCH   1  11
TORSDOF 4
REMARK  Name = ../refined-set-2016/3kwa/3kwa_pocket.pdb
REMARK  147 active torsions:
REMARK  status: ('A' for Active; 'I' for Inactive)
REMARK    1  A    between atoms: _1  and  _3
REMARK    2  A    between atoms: _3  and  _4
REMARK    3  A    between atoms: _3  and  _6
REMARK    4  A    between atoms: _6  and  _7
REMARK    5  A    between atoms: _17  and  _19
REMARK    6  A    between atoms: _19  and  _20
REMARK    7  A    between atoms: _19  and  _22
REMARK    8  A    between atoms: _22  and  _23
REMARK    9  A    between atoms: _28  and  _29
REMARK   10  A    between atoms: _31  and  _33
REMARK   11  A    between atoms: _33  and  _34
REMARK   12  A    between atoms: _33  and  _36
REMARK   13  A    between atoms: _36  and  _37
REMARK   14  A    between atoms: _40  and  _41
REMARK   15  A    between atoms: _46  and  _48
REMARK   16  A    between atoms: _48  and  _49
REMARK   17  A    between atoms: _48  and  _51
REMARK   18  A    between atoms: _51  and  _52
REMARK   19  A    between atoms: _57  and  _59
REMARK   20  A    between atoms: _59  and  _60
REMARK   21  A    between atoms: _59  and  _62
REMARK   22  A    between atoms: _62  and  _63
REMARK   23  A    between atoms: _68  and  _70
REMARK   24  A    between atoms: _70  and  _71
REMARK   25  A    between atoms: _74  and  _76
REMARK   26  A    between atoms: _76  and  _77
REMARK   27  A    between atoms: _76  and  _79
REMARK   28  A    between atoms: _79  and  _80
REMARK   29  A    between atoms: _86  and  _88
REMARK   30  A    between atoms: _88  and  _89
REMARK   31  A    between atoms: _88  and  _91
REMARK   32  A    between atoms: _91  and  _92
REMARK   33  A    between atoms: _97  and  _99
REMARK   34  A    between atoms: _99  and  _100
REMARK   35  A    between atoms: _99  and  _102
REMARK   36  A    between atoms: _102  and  _103
REMARK   37  A    between atoms: _106  and  _108
REMARK   38  A    between atoms: _108  and  _109
REMARK   39  A    between atoms: _108  and  _111
REMARK   40  A    between atoms: _111  and  _112
REMARK   41  A    between atoms: _112  and  _113
REMARK   42  A    between atoms: _118  and  _120
REMARK   43  A    between atoms: _120  and  _121
REMARK   44  A    between atoms: _120  and  _123
REMARK   45  A    between atoms: _123  and  _124
REMARK   46  A    between atoms: _130  and  _132
REMARK   47  A    between atoms: _143  and  _146
REMARK   48  A    between atoms: _146  and  _147
REMARK   49  A    between atoms: _155  and  _156
REMARK   50  A    between atoms: _164  and  _166
REMARK   51  A    between atoms: _166  and  _167
REMARK   52  A    between atoms: _166  and  _169
REMARK   53  A    between atoms: _169  and  _170
REMARK   54  A    between atoms: _170  and  _171
REMARK   55  A    between atoms: _174  and  _176
REMARK   56  A    between atoms: _176  and  _177
REMARK   57  A    between atoms: _176  and  _179
REMARK   58  A    between atoms: _179  and  _180
REMARK   59  A    between atoms: _185  and  _187
REMARK   60  A    between atoms: _187  and  _188
REMARK   61  A    between atoms: _187  and  _190
REMARK   62  A    between atoms: _190  and  _191
REMARK   63  A    between atoms: _191  and  _192
REMARK   64  A    between atoms: _195  and  _197
REMARK   65  A    between atoms: _197  and  _198
REMARK   66  A    between atoms: _197  and  _200
REMARK   67  A    between atoms: _200  and  _201
REMARK   68  A    between atoms: _204  and  _206
REMARK   69  A    between atoms: _206  and  _207
REMARK   70  A    between atoms: _206  and  _209
REMARK   71  A    between atoms: _209  and  _210
REMARK   72  A    between atoms: _211  and  ZN_415
REMARK   73  A    between atoms: _215  and  _217
REMARK   74  A    between atoms: _217  and  _218
REMARK   75  A    between atoms: _217  and  _220
REMARK   76  A    between atoms: _220  and  _221
REMARK   77  A    between atoms: _224  and  _226
REMARK   78  A    between atoms: _226  and  _227
REMARK   79  A    between atoms: _226  and  _229
REMARK   80  A    between atoms: _232  and  _234
REMARK   81  A    between atoms: _234  and  _235
REMARK   82  A    between atoms: _234  and  _237
REMARK   83  A    between atoms: _237  and  _238
REMARK   84  A    between atoms: _243  and  _245
REMARK   85  A    between atoms: _245  and  _246
REMARK   86  A    between atoms: _245  and  _248
REMARK   87  A    between atoms: _248  and  _249
REMARK   88  A    between atoms: _255  and  _257
REMARK   89  A    between atoms: _257  and  _258
REMARK   90  A    between atoms: _257  and  _260
REMARK   91  A    between atoms: _263  and  _265
REMARK   92  A    between atoms: _265  and  _266
REMARK   93  A    between atoms: _265  and  _268
REMARK   94  A    between atoms: _268  and  _269
REMARK   95  A    between atoms: _272  and  _274
REMARK   96  A    between atoms: _274  and  _275
REMARK   97  A    between atoms: _278  and  _280
REMARK   98  A    between atoms: _280  and  _281
REMARK   99  A    between atoms: _280  and  _283
REMARK  100  A    between atoms: _286  and  _288
REMARK  101  A    between atoms: _288  and  _289
REMARK  102  A    between atoms: _288  and  _291
REMARK  103  A    between atoms: _291  and  _292
REMARK  104  A    between atoms: _295  and  _297
REMARK  105  A    between atoms: _297  and  _298
REMARK  106  A    between atoms: _300  and  _302
REMARK  107  A    between atoms: _302  and  _303
REMARK  108  A    between atoms: _302  and  _305
REMARK  109  A    between atoms: _305  and  _306
REMARK  110  A    between atoms: _308  and  _310
REMARK  111  A    between atoms: _310  and  _311
REMARK  112  A    between atoms: _310  and  _313
REMARK  113  A    between atoms: _313  and  _314
REMARK  114  A    between atoms: _317  and  _319
REMARK  115  A    between atoms: _319  and  _320
REMARK  116  A    between atoms: _319  and  _322
REMARK  117  A    between atoms: _322  and  _323
REMARK  118  A    between atoms: _326  and  _328
REMARK  119  A    between atoms: _328  and  _329
REMARK  120  A    between atoms: _328  and  _331
REMARK  121  A    between atoms: _331  and  _332
REMARK  122  A    between atoms: _336  and  _337
REMARK  123  A    between atoms: _343  and  _344
REMARK  124  A    between atoms: _349  and  _351
REMARK  125  A    between atoms: _351  and  _352
REMARK  126  A    between atoms: _351  and  _354
REMARK  127  A    between atoms: _354  and  _355
REMARK  128  A    between atoms: _358  and  _360
REMARK  129  A    between atoms: _360  and  _361
REMARK  130  A    between atoms: _360  and  _363
REMARK  131  A    between atoms: _363  and  _364
REMARK  132  A    between atoms: _367  and  _369
REMARK  133  A    between atoms: _369  and  _370
REMARK  134  A    between atoms: _369  and  _372
REMARK  135  A    between atoms: _374  and  _376
REMARK  136  A    between atoms: _376  and  _377
REMARK  137  A    between atoms: _376  and  _379
REMARK  138  A    between atoms: _382  and  _384
REMARK  139  A    between atoms: _384  and  _385
REMARK  140  A    between atoms: _384  and  _387
REMARK  141  A    between atoms: _387  and  _388
REMARK  142  A    between atoms: _398  and  _400
REMARK  143  A    between atoms: _400  and  _401
REMARK  144  A    between atoms: _400  and  _403
REMARK  145  A    between atoms: _403  and  _404
REMARK  146  A    between atoms: _404  and  _405
REMARK  147  A    between atoms: _405  and  _406
REMARK                            x       y       z     vdW  Elec       q    Type
REMARK                         _______ _______ _______ _____ _____    ______ ____
ROOT
ATOM      1  CG  TYR A   1       1.891  -7.082  11.945  0.00  0.00    -0.020 A 
ATOM      2  CD2 TYR A   1       1.499  -6.945  13.279  0.00  0.00    -0.001 A 
ATOM      3  CE2 TYR A   1       0.671  -5.888  13.691  0.00  0.00    +0.036 A 
ATOM      4  CZ  TYR A   1       0.215  -4.968  12.752  0.00  0.00    +0.134 A 
ATOM      5  CE1 TYR A   1       0.595  -5.098  11.429  0.00  0.00    +0.036 A 
ATOM      6  CD1 TYR A   1       1.432  -6.144  11.033  0.00  0.00    -0.001 A 
ENDROOT
BRANCH   4   7
ATOM      7  OH  TYR A   1      -0.612  -3.921  13.161  0.00  0.00    -0.506 OA
ATOM      8  HH  TYR A   1      -0.845  -3.361  12.378  0.00  0.00    +0.292 HD
ENDBRANCH   4   7
BRANCH   1   9
ATOM      9  CB  TYR A   1       2.803  -8.202  11.515  0.00  0.00    +0.051 C 
BRANCH   9  10
ATOM     10  CA  TYR A   1       4.321  -7.871  11.652  0.00  0.00    +0.137 C 
BRANCH  10  11
ATOM     11  N   TYR A   1       4.727  -6.750  10.770  0.00  0.00    -0.239 NA
ATOM     12  H   TYR A   1       4.806  -6.912   9.746  0.00  0.00    +0.142 HD
ENDBRANCH  10  11
BRANCH  10  13
ATOM     13  C   TYR A   1       5.179  -9.123  11.427  0.00  0.00    +0.224 C 
ATOM     14  O   TYR A   1       4.905 -10.191  11.993  0.00  0.00    -0.287 OA
ENDBRANCH  10  13
ENDBRANCH   9  10
ENDBRANCH   1   9
TORSDOF 5
REMARK  Name = ../refined-set-2016/3kwa/3kwa_pocket.pdb
REMARK  147 active torsions:
REMARK  status: ('A' for Active; 'I' for Inactive)
REMARK    1  A    between atoms: _1  and  _3
REMARK    2  A    between atoms: _3  and  _4
REMARK    3  A    between atoms: _3  and  _6
REMARK    4  A    between atoms: _6  and  _7
REMARK    5  A    between atoms: _17  and  _19
REMARK    6  A    between atoms: _19  and  _20
REMARK    7  A    between atoms: _19  and  _22
REMARK    8  A    between atoms: _22  and  _23
REMARK    9  A    between atoms: _28  and  _29
REMARK   10  A    between atoms: _31  and  _33
REMARK   11  A    between atoms: _33  and  _34
REMARK   12  A    between atoms: _33  and  _36
REMARK   13  A    between atoms: _36  and  _37
REMARK   14  A    between atoms: _40  and  _41
REMARK   15  A    between atoms: _46  and  _48
REMARK   16  A    between atoms: _48  and  _49
REMARK   17  A    between atoms: _48  and  _51
REMARK   18  A    between atoms: _51  and  _52
REMARK   19  A    between atoms: _57  and  _59
REMARK   20  A    between atoms: _59  and  _60
REMARK   21  A    between atoms: _59  and  _62
REMARK   22  A    between atoms: _62  and  _63
REMARK   23  A    between atoms: _68  and  _70
REMARK   24  A    between atoms: _70  and  _71
REMARK   25  A    between atoms: _74  and  _76
REMARK   26  A    between atoms: _76  and  _77
REMARK   27  A    between atoms: _76  and  _79
REMARK   28  A    between atoms: _79  and  _80
REMARK   29  A    between atoms: _86  and  _88
REMARK   30  A    between atoms: _88  and  _89
REMARK   31  A    between atoms: _88  and  _91
REMARK   32  A    between atoms: _91  and  _92
REMARK   33  A    between atoms: _97  and  _99
REMARK   34  A    between atoms: _99  and  _100
REMARK   35  A    between atoms: _99  and  _102
REMARK   36  A    between atoms: _102  and  _103
REMARK   37  A    between atoms: _106  and  _108
REMARK   38  A    between atoms: _108  and  _109
REMARK   39  A    between atoms: _108  and  _111
REMARK   40  A    between atoms: _111  and  _112
REMARK   41  A    between atoms: _112  and  _113
REMARK   42  A    between atoms: _118  and  _120
REMARK   43  A    between atoms: _120  and  _121
REMARK   44  A    between atoms: _120  and  _123
REMARK   45  A    between atoms: _123  and  _124
REMARK   46  A    between atoms: _130  and  _132
REMARK   47  A    between atoms: _143  and  _146
REMARK   48  A    between atoms: _146  and  _147
REMARK   49  A    between atoms: _155  and  _156
REMARK   50  A    between atoms: _164  and  _166
REMARK   51  A    between atoms: _166  and  _167
REMARK   52  A    between atoms: _166  and  _169
REMARK   53  A    between atoms: _169  and  _170
REMARK   54  A    between atoms: _170  and  _171
REMARK   55  A    between atoms: _174  and  _176
REMARK   56  A    between atoms: _176  and  _177
REMARK   57  A    between atoms: _176  and  _179
REMARK   58  A    between atoms: _179  and  _180
REMARK   59  A    between atoms: _185  and  _187
REMARK   60  A    between atoms: _187  and  _188
REMARK   61  A    between atoms: _187  and  _190
REMARK   62  A    between atoms: _190  and  _191
REMARK   63  A    between atoms: _191  and  _192
REMARK   64  A    between atoms: _195  and  _197
REMARK   65  A    between atoms: _197  and  _198
REMARK   66  A    between atoms: _197  and  _200
REMARK   67  A    between atoms: _200  and  _201
REMARK   68  A    between atoms: _204  and  _206
REMARK   69  A    between atoms: _206  and  _207
REMARK   70  A    between atoms: _206  and  _209
REMARK   71  A    between atoms: _209  and  _210
REMARK   72  A    between atoms: _211  and  ZN_415
REMARK   73  A    between atoms: _215  and  _217
REMARK   74  A    between atoms: _217  and  _218
REMARK   75  A    between atoms: _217  and  _220
REMARK   76  A    between atoms: _220  and  _221
REMARK   77  A    between atoms: _224  and  _226
REMARK   78  A    between atoms: _226  and  _227
REMARK   79  A    between atoms: _226  and  _229
REMARK   80  A    between atoms: _232  and  _234
REMARK   81  A    between atoms: _234  and  _235
REMARK   82  A    between atoms: _234  and  _237
REMARK   83  A    between atoms: _237  and  _238
REMARK   84  A    between atoms: _243  and  _245
REMARK   85  A    between atoms: _245  and  _246
REMARK   86  A    between atoms: _245  and  _248
REMARK   87  A    between atoms: _248  and  _249
REMARK   88  A    between atoms: _255  and  _257
REMARK   89  A    between atoms: _257  and  _258
REMARK   90  A    between atoms: _257  and  _260
REMARK   91  A    between atoms: _263  and  _265
REMARK   92  A    between atoms: _265  and  _266
REMARK   93  A    between atoms: _265  and  _268
REMARK   94  A    between atoms: _268  and  _269
REMARK   95  A    between atoms: _272  and  _274
REMARK   96  A    between atoms: _274  and  _275
REMARK   97  A    between atoms: _278  and  _280
REMARK   98  A    between atoms: _280  and  _281
REMARK   99  A    between atoms: _280  and  _283
REMARK  100  A    between atoms: _286  and  _288
REMARK  101  A    between atoms: _288  and  _289
REMARK  102  A    between atoms: _288  and  _291
REMARK  103  A    between atoms: _291  and  _292
REMARK  104  A    between atoms: _295  and  _297
REMARK  105  A    between atoms: _297  and  _298
REMARK  106  A    between atoms: _300  and  _302
REMARK  107  A    between atoms: _302  and  _303
REMARK  108  A    between atoms: _302  and  _305
REMARK  109  A    between atoms: _305  and  _306
REMARK  110  A    between atoms: _308  and  _310
REMARK  111  A    between atoms: _310  and  _311
REMARK  112  A    between atoms: _310  and  _313
REMARK  113  A    between atoms: _313  and  _314
REMARK  114  A    between atoms: _317  and  _319
REMARK  115  A    between atoms: _319  and  _320
REMARK  116  A    between atoms: _319  and  _322
REMARK  117  A    between atoms: _322  and  _323
REMARK  118  A    between atoms: _326  and  _328
REMARK  119  A    between atoms: _328  and  _329
REMARK  120  A    between atoms: _328  and  _331
REMARK  121  A    between atoms: _331  and  _332
REMARK  122  A    between atoms: _336  and  _337
REMARK  123  A    between atoms: _343  and  _344
REMARK  124  A    between atoms: _349  and  _351
REMARK  125  A    between atoms: _351  and  _352
REMARK  126  A    between atoms: _351  and  _354
REMARK  127  A    between atoms: _354  and  _355
REMARK  128  A    between atoms: _358  and  _360
REMARK  129  A    between atoms: _360  and  _361
REMARK  130  A    between atoms: _360  and  _363
REMARK  131  A    between atoms: _363  and  _364
REMARK  132  A    between atoms: _367  and  _369
REMARK  133  A    between atoms: _369  and  _370
REMARK  134  A    between atoms: _369  and  _372
REMARK  135  A    between atoms: _374  and  _376
REMARK  136  A    between atoms: _376  and  _377
REMARK  137  A    between atoms: _376  and  _379
REMARK  138  A    between atoms: _382  and  _384
REMARK  139  A    between atoms: _384  and  _385
REMARK  140  A    between atoms: _384  and  _387
REMARK  141  A    between atoms: _387  and  _388
REMARK  142  A    between atoms: _398  and  _400
REMARK  143  A    between atoms: _400  and  _401
REMARK  144  A    between atoms: _400  and  _403
REMARK  145  A    between atoms: _403  and  _404
REMARK  146  A    between atoms: _404  and  _405
REMARK  147  A    between atoms: _405  and  _406
REMARK                            x       y       z     vdW  Elec       q    Type
REMARK                         _______ _______ _______ _____ _____    ______ ____
ROOT
ATOM      1  C   SER A   1      -2.370  -3.075  23.210  0.00  0.00    +0.244 C 
ATOM      2  N   PRO A   2      -2.984  -4.236  22.954  0.00  0.00    -0.273 N 
ATOM      3  CA  PRO A   2      -4.144  -4.789  23.657  0.00  0.00    +0.140 C 
ATOM      4  CB  PRO A   2      -4.644  -5.832  22.653  0.00  0.00    +0.030 C 
ATOM      5  CG  PRO A   2      -3.387  -6.342  22.069  0.00  0.00    +0.024 C 
ATOM      6  CD  PRO A   2      -2.545  -5.138  21.866  0.00  0.00    +0.094 C 
ATOM      7  O   SER A   1      -1.407  -2.682  22.541  0.00  0.00    -0.273 OA
ENDROOT
BRANCH   3   8
ATOM      8  C   PRO A   2      -3.714  -5.490  24.951  0.00  0.00    +0.227 C 
ATOM      9  O   PRO A   2      -2.519  -5.579  25.219  0.00  0.00    -0.286 OA
ENDBRANCH   3   8
BRANCH   1  10
ATOM     10  CA  SER A   1      -2.924  -2.229  24.380  0.00  0.00    +0.175 C 
BRANCH  10  11
ATOM     11  N   SER A   1      -1.868  -1.377  24.887  0.00  0.00    -0.236 NA
ATOM     12  H   SER A   1      -1.367  -0.782  24.197  0.00  0.00    +0.142 HD
ENDBRANCH  10  11
BRANCH  10  13
ATOM     13  CB  SER A   1      -4.090  -1.374  23.871  0.00  0.00    +0.163 C 
BRANCH  13  14
ATOM     14  OG  SER A   1      -4.530  -0.421  24.829  0.00  0.00    -0.380 OA
ATOM     15  H   SER A   1      -4.832  -0.891  25.646  0.00  0.00    +0.211 HD
ENDBRANCH  13  14
ENDBRANCH  10  13
ENDBRANCH   1  10
TORSDOF 5
REMARK  Name = ../refined-set-2016/3kwa/3kwa_pocket.pdb
REMARK  147 active torsions:
REMARK  status: ('A' for Active; 'I' for Inactive)
REMARK    1  A    between atoms: _1  and  _3
REMARK    2  A    between atoms: _3  and  _4
REMARK    3  A    between atoms: _3  and  _6
REMARK    4  A    between atoms: _6  and  _7
REMARK    5  A    between atoms: _17  and  _19
REMARK    6  A    between atoms: _19  and  _20
REMARK    7  A    between atoms: _19  and  _22
REMARK    8  A    between atoms: _22  and  _23
REMARK    9  A    between atoms: _28  and  _29
REMARK   10  A    between atoms: _31  and  _33
REMARK   11  A    between atoms: _33  and  _34
REMARK   12  A    between atoms: _33  and  _36
REMARK   13  A    between atoms: _36  and  _37
REMARK   14  A    between atoms: _40  and  _41
REMARK   15  A    between atoms: _46  and  _48
REMARK   16  A    between atoms: _48  and  _49
REMARK   17  A    between atoms: _48  and  _51
REMARK   18  A    between atoms: _51  and  _52
REMARK   19  A    between atoms: _57  and  _59
REMARK   20  A    between atoms: _59  and  _60
REMARK   21  A    between atoms: _59  and  _62
REMARK   22  A    between atoms: _62  and  _63
REMARK   23  A    between atoms: _68  and  _70
REMARK   24  A    between atoms: _70  and  _71
REMARK   25  A    between atoms: _74  and  _76
REMARK   26  A    between atoms: _76  and  _77
REMARK   27  A    between atoms: _76  and  _79
REMARK   28  A    between atoms: _79  and  _80
REMARK   29  A    between atoms: _86  and  _88
REMARK   30  A    between atoms: _88  and  _89
REMARK   31  A    between atoms: _88  and  _91
REMARK   32  A    between atoms: _91  and  _92
REMARK   33  A    between atoms: _97  and  _99
REMARK   34  A    between atoms: _99  and  _100
REMARK   35  A    between atoms: _99  and  _102
REMARK   36  A    between atoms: _102  and  _103
REMARK   37  A    between atoms: _106  and  _108
REMARK   38  A    between atoms: _108  and  _109
REMARK   39  A    between atoms: _108  and  _111
REMARK   40  A    between atoms: _111  and  _112
REMARK   41  A    between atoms: _112  and  _113
REMARK   42  A    between atoms: _118  and  _120
REMARK   43  A    between atoms: _120  and  _121
REMARK   44  A    between atoms: _120  and  _123
REMARK   45  A    between atoms: _123  and  _124
REMARK   46  A    between atoms: _130  and  _132
REMARK   47  A    between atoms: _143  and  _146
REMARK   48  A    between atoms: _146  and  _147
REMARK   49  A    between atoms: _155  and  _156
REMARK   50  A    between atoms: _164  and  _166
REMARK   51  A    between atoms: _166  and  _167
REMARK   52  A    between atoms: _166  and  _169
REMARK   53  A    between atoms: _169  and  _170
REMARK   54  A    between atoms: _170  and  _171
REMARK   55  A    between atoms: _174  and  _176
REMARK   56  A    between atoms: _176  and  _177
REMARK   57  A    between atoms: _176  and  _179
REMARK   58  A    between atoms: _179  and  _180
REMARK   59  A    between atoms: _185  and  _187
REMARK   60  A    between atoms: _187  and  _188
REMARK   61  A    between atoms: _187  and  _190
REMARK   62  A    between atoms: _190  and  _191
REMARK   63  A    between atoms: _191  and  _192
REMARK   64  A    between atoms: _195  and  _197
REMARK   65  A    between atoms: _197  and  _198
REMARK   66  A    between atoms: _197  and  _200
REMARK   67  A    between atoms: _200  and  _201
REMARK   68  A    between atoms: _204  and  _206
REMARK   69  A    between atoms: _206  and  _207
REMARK   70  A    between atoms: _206  and  _209
REMARK   71  A    between atoms: _209  and  _210
REMARK   72  A    between atoms: _211  and  ZN_415
REMARK   73  A    between atoms: _215  and  _217
REMARK   74  A    between atoms: _217  and  _218
REMARK   75  A    between atoms: _217  and  _220
REMARK   76  A    between atoms: _220  and  _221
REMARK   77  A    between atoms: _224  and  _226
REMARK   78  A    between atoms: _226  and  _227
REMARK   79  A    between atoms: _226  and  _229
REMARK   80  A    between atoms: _232  and  _234
REMARK   81  A    between atoms: _234  and  _235
REMARK   82  A    between atoms: _234  and  _237
REMARK   83  A    between atoms: _237  and  _238
REMARK   84  A    between atoms: _243  and  _245
REMARK   85  A    between atoms: _245  and  _246
REMARK   86  A    between atoms: _245  and  _248
REMARK   87  A    between atoms: _248  and  _249
REMARK   88  A    between atoms: _255  and  _257
REMARK   89  A    between atoms: _257  and  _258
REMARK   90  A    between atoms: _257  and  _260
REMARK   91  A    between atoms: _263  and  _265
REMARK   92  A    between atoms: _265  and  _266
REMARK   93  A    between atoms: _265  and  _268
REMARK   94  A    between atoms: _268  and  _269
REMARK   95  A    between atoms: _272  and  _274
REMARK   96  A    between atoms: _274  and  _275
REMARK   97  A    between atoms: _278  and  _280
REMARK   98  A    between atoms: _280  and  _281
REMARK   99  A    between atoms: _280  and  _283
REMARK  100  A    between atoms: _286  and  _288
REMARK  101  A    between atoms: _288  and  _289
REMARK  102  A    between atoms: _288  and  _291
REMARK  103  A    between atoms: _291  and  _292
REMARK  104  A    between atoms: _295  and  _297
REMARK  105  A    between atoms: _297  and  _298
REMARK  106  A    between atoms: _300  and  _302
REMARK  107  A    between atoms: _302  and  _303
REMARK  108  A    between atoms: _302  and  _305
REMARK  109  A    between atoms: _305  and  _306
REMARK  110  A    between atoms: _308  and  _310
REMARK  111  A    between atoms: _310  and  _311
REMARK  112  A    between atoms: _310  and  _313
REMARK  113  A    between atoms: _313  and  _314
REMARK  114  A    between atoms: _317  and  _319
REMARK  115  A    between atoms: _319  and  _320
REMARK  116  A    between atoms: _319  and  _322
REMARK  117  A    between atoms: _322  and  _323
REMARK  118  A    between atoms: _326  and  _328
REMARK  119  A    between atoms: _328  and  _329
REMARK  120  A    between atoms: _328  and  _331
REMARK  121  A    between atoms: _331  and  _332
REMARK  122  A    between atoms: _336  and  _337
REMARK  123  A    between atoms: _343  and  _344
REMARK  124  A    between atoms: _349  and  _351
REMARK  125  A    between atoms: _351  and  _352
REMARK  126  A    between atoms: _351  and  _354
REMARK  127  A    between atoms: _354  and  _355
REMARK  128  A    between atoms: _358  and  _360
REMARK  129  A    between atoms: _360  and  _361
REMARK  130  A    between atoms: _360  and  _363
REMARK  131  A    between atoms: _363  and  _364
REMARK  132  A    between atoms: _367  and  _369
REMARK  133  A    between atoms: _369  and  _370
REMARK  134  A    between atoms: _369  and  _372
REMARK  135  A    between atoms: _374  and  _376
REMARK  136  A    between atoms: _376  and  _377
REMARK  137  A    between atoms: _376  and  _379
REMARK  138  A    between atoms: _382  and  _384
REMARK  139  A    between atoms: _384  and  _385
REMARK  140  A    between atoms: _384  and  _387
REMARK  141  A    between atoms: _387  and  _388
REMARK  142  A    between atoms: _398  and  _400
REMARK  143  A    between atoms: _400  and  _401
REMARK  144  A    between atoms: _400  and  _403
REMARK  145  A    between atoms: _403  and  _404
REMARK  146  A    between atoms: _404  and  _405
REMARK  147  A    between atoms: _405  and  _406
REMARK                            x       y       z     vdW  Elec       q    Type
REMARK                         _______ _______ _______ _____ _____    ______ ____
ROOT
ATOM      1  CB  ASN A   1      -2.361   2.093   5.281  0.00  0.00    +0.110 C 
ENDROOT
BRANCH   1   2
ATOM      2  CG  ASN A   1      -2.787   1.198   6.460  0.00  0.00    +0.221 C 
ATOM      3  ND2 ASN A   1      -3.623   1.735   7.336  0.00  0.00    -0.329 N 
ATOM      4 HD21 ASN A   1      -3.933   1.186   8.163  0.00  0.00    +0.145 HD
ATOM      5 HD22 ASN A   1      -3.969   2.706   7.197  0.00  0.00    +0.145 HD
ATOM      6  OD1 ASN A   1      -2.347   0.047   6.582  0.00  0.00    -0.275 OA
ENDBRANCH   1   2
BRANCH   1   7
ATOM      7  CA  ASN A   1      -2.015   1.286   4.020  0.00  0.00    +0.142 C 
BRANCH   7   8
ATOM      8  N   ASN A   1      -3.201   0.547   3.565  0.00  0.00    -0.239 NA
ATOM      9  H   ASN A   1      -3.865   0.161   4.266  0.00  0.00    +0.142 HD
ENDBRANCH   7   8
BRANCH   7  10
ATOM     10  C   ASN A   1      -0.824   0.341   4.256  0.00  0.00    +0.225 C 
ATOM     11  O   ASN A   1       0.153   0.687   4.914  0.00  0.00    -0.287 OA
ENDBRANCH   7  10
ENDBRANCH   1   7
TORSDOF 4
REMARK  Name = ../refined-set-2016/3kwa/3kwa_pocket.pdb
REMARK  147 active torsions:
REMARK  status: ('A' for Active; 'I' for Inactive)
REMARK    1  A    between atoms: _1  and  _3
REMARK    2  A    between atoms: _3  and  _4
REMARK    3  A    between atoms: _3  and  _6
REMARK    4  A    between atoms: _6  and  _7
REMARK    5  A    between atoms: _17  and  _19
REMARK    6  A    between atoms: _19  and  _20
REMARK    7  A    between atoms: _19  and  _22
REMARK    8  A    between atoms: _22  and  _23
REMARK    9  A    between atoms: _28  and  _29
REMARK   10  A    between atoms: _31  and  _33
REMARK   11  A    between atoms: _33  and  _34
REMARK   12  A    between atoms: _33  and  _36
REMARK   13  A    between atoms: _36  and  _37
REMARK   14  A    between atoms: _40  and  _41
REMARK   15  A    between atoms: _46  and  _48
REMARK   16  A    between atoms: _48  and  _49
REMARK   17  A    between atoms: _48  and  _51
REMARK   18  A    between atoms: _51  and  _52
REMARK   19  A    between atoms: _57  and  _59
REMARK   20  A    between atoms: _59  and  _60
REMARK   21  A    between atoms: _59  and  _62
REMARK   22  A    between atoms: _62  and  _63
REMARK   23  A    between atoms: _68  and  _70
REMARK   24  A    between atoms: _70  and  _71
REMARK   25  A    between atoms: _74  and  _76
REMARK   26  A    between atoms: _76  and  _77
REMARK   27  A    between atoms: _76  and  _79
REMARK   28  A    between atoms: _79  and  _80
REMARK   29  A    between atoms: _86  and  _88
REMARK   30  A    between atoms: _88  and  _89
REMARK   31  A    between atoms: _88  and  _91
REMARK   32  A    between atoms: _91  and  _92
REMARK   33  A    between atoms: _97  and  _99
REMARK   34  A    between atoms: _99  and  _100
REMARK   35  A    between atoms: _99  and  _102
REMARK   36  A    between atoms: _102  and  _103
REMARK   37  A    between atoms: _106  and  _108
REMARK   38  A    between atoms: _108  and  _109
REMARK   39  A    between atoms: _108  and  _111
REMARK   40  A    between atoms: _111  and  _112
REMARK   41  A    between atoms: _112  and  _113
REMARK   42  A    between atoms: _118  and  _120
REMARK   43  A    between atoms: _120  and  _121
REMARK   44  A    between atoms: _120  and  _123
REMARK   45  A    between atoms: _123  and  _124
REMARK   46  A    between atoms: _130  and  _132
REMARK   47  A    between atoms: _143  and  _146
REMARK   48  A    between atoms: _146  and  _147
REMARK   49  A    between atoms: _155  and  _156
REMARK   50  A    between atoms: _164  and  _166
REMARK   51  A    between atoms: _166  and  _167
REMARK   52  A    between atoms: _166  and  _169
REMARK   53  A    between atoms: _169  and  _170
REMARK   54  A    between atoms: _170  and  _171
REMARK   55  A    between atoms: _174  and  _176
REMARK   56  A    between atoms: _176  and  _177
REMARK   57  A    between atoms: _176  and  _179
REMARK   58  A    between atoms: _179  and  _180
REMARK   59  A    between atoms: _185  and  _187
REMARK   60  A    between atoms: _187  and  _188
REMARK   61  A    between atoms: _187  and  _190
REMARK   62  A    between atoms: _190  and  _191
REMARK   63  A    between atoms: _191  and  _192
REMARK   64  A    between atoms: _195  and  _197
REMARK   65  A    between atoms: _197  and  _198
REMARK   66  A    between atoms: _197  and  _200
REMARK   67  A    between atoms: _200  and  _201
REMARK   68  A    between atoms: _204  and  _206
REMARK   69  A    between atoms: _206  and  _207
REMARK   70  A    between atoms: _206  and  _209
REMARK   71  A    between atoms: _209  and  _210
REMARK   72  A    between atoms: _211  and  ZN_415
REMARK   73  A    between atoms: _215  and  _217
REMARK   74  A    between atoms: _217  and  _218
REMARK   75  A    between atoms: _217  and  _220
REMARK   76  A    between atoms: _220  and  _221
REMARK   77  A    between atoms: _224  and  _226
REMARK   78  A    between atoms: _226  and  _227
REMARK   79  A    between atoms: _226  and  _229
REMARK   80  A    between atoms: _232  and  _234
REMARK   81  A    between atoms: _234  and  _235
REMARK   82  A    between atoms: _234  and  _237
REMARK   83  A    between atoms: _237  and  _238
REMARK   84  A    between atoms: _243  and  _245
REMARK   85  A    between atoms: _245  and  _246
REMARK   86  A    between atoms: _245  and  _248
REMARK   87  A    between atoms: _248  and  _249
REMARK   88  A    between atoms: _255  and  _257
REMARK   89  A    between atoms: _257  and  _258
REMARK   90  A    between atoms: _257  and  _260
REMARK   91  A    between atoms: _263  and  _265
REMARK   92  A    between atoms: _265  and  _266
REMARK   93  A    between atoms: _265  and  _268
REMARK   94  A    between atoms: _268  and  _269
REMARK   95  A    between atoms: _272  and  _274
REMARK   96  A    between atoms: _274  and  _275
REMARK   97  A    between atoms: _278  and  _280
REMARK   98  A    between atoms: _280  and  _281
REMARK   99  A    between atoms: _280  and  _283
REMARK  100  A    between atoms: _286  and  _288
REMARK  101  A    between atoms: _288  and  _289
REMARK  102  A    between atoms: _288  and  _291
REMARK  103  A    between atoms: _291  and  _292
REMARK  104  A    between atoms: _295  and  _297
REMARK  105  A    between atoms: _297  and  _298
REMARK  106  A    between atoms: _300  and  _302
REMARK  107  A    between atoms: _302  and  _303
REMARK  108  A    between atoms: _302  and  _305
REMARK  109  A    between atoms: _305  and  _306
REMARK  110  A    between atoms: _308  and  _310
REMARK  111  A    between atoms: _310  and  _311
REMARK  112  A    between atoms: _310  and  _313
REMARK  113  A    between atoms: _313  and  _314
REMARK  114  A    between atoms: _317  and  _319
REMARK  115  A    between atoms: _319  and  _320
REMARK  116  A    between atoms: _319  and  _322
REMARK  117  A    between atoms: _322  and  _323
REMARK  118  A    between atoms: _326  and  _328
REMARK  119  A    between atoms: _328  and  _329
REMARK  120  A    between atoms: _328  and  _331
REMARK  121  A    between atoms: _331  and  _332
REMARK  122  A    between atoms: _336  and  _337
REMARK  123  A    between atoms: _343  and  _344
REMARK  124  A    between atoms: _349  and  _351
REMARK  125  A    between atoms: _351  and  _352
REMARK  126  A    between atoms: _351  and  _354
REMARK  127  A    between atoms: _354  and  _355
REMARK  128  A    between atoms: _358  and  _360
REMARK  129  A    between atoms: _360  and  _361
REMARK  130  A    between atoms: _360  and  _363
REMARK  131  A    between atoms: _363  and  _364
REMARK  132  A    between atoms: _367  and  _369
REMARK  133  A    between atoms: _369  and  _370
REMARK  134  A    between atoms: _369  and  _372
REMARK  135  A    between atoms: _374  and  _376
REMARK  136  A    between atoms: _376  and  _377
REMARK  137  A    between atoms: _376  and  _379
REMARK  138  A    between atoms: _382  and  _384
REMARK  139  A    between atoms: _384  and  _385
REMARK  140  A    between atoms: _384  and  _387
REMARK  141  A    between atoms: _387  and  _388
REMARK  142  A    between atoms: _398  and  _400
REMARK  143  A    between atoms: _400  and  _401
REMARK  144  A    between atoms: _400  and  _403
REMARK  145  A    between atoms: _403  and  _404
REMARK  146  A    between atoms: _404  and  _405
REMARK  147  A    between atoms: _405  and  _406
REMARK                            x       y       z     vdW  Elec       q    Type
REMARK                         _______ _______ _______ _____ _____    ______ ____
ROOT
ATOM      1  CA  PHE A   3      -7.220  -1.554   5.287  0.00  0.00    +0.153 C 
ENDROOT
BRANCH   1   3
ATOM      2  C   ALA A   2      -5.154  -2.386   6.186  0.00  0.00    +0.241 C 
ATOM      3  N   PHE A   3      -6.471  -2.505   6.105  0.00  0.00    -0.297 N 
ATOM      4  H   PHE A   3      -6.965  -3.264   6.616  0.00  0.00    +0.150 HD
ATOM      5  O   ALA A   2      -4.512  -1.671   5.407  0.00  0.00    -0.273 OA
BRANCH   2   6
ATOM      6  CA  ALA A   2      -4.445  -3.178   7.278  0.00  0.00    +0.149 C 
ATOM      7  CB  ALA A   2      -4.952  -2.772   8.638  0.00  0.00    +0.031 C 
BRANCH   6  10
ATOM      8  C   HIS A   1      -2.064  -3.545   7.735  0.00  0.00    +0.239 C 
ATOM      9  O   HIS A   1      -2.253  -4.543   8.451  0.00  0.00    -0.274 OA
ATOM     10  N   ALA A   2      -3.036  -2.866   7.151  0.00  0.00    -0.297 N 
ATOM     11  H   ALA A   2      -2.771  -2.052   6.560  0.00  0.00    +0.150 HD
BRANCH   8  12
ATOM     12  CA  HIS A   1      -0.656  -3.035   7.437  0.00  0.00    +0.151 C 
BRANCH  12  13
ATOM     13  N   HIS A   1      -0.580  -2.242   6.187  0.00  0.00    -0.238 NA
ATOM     14  H   HIS A   1      -1.247  -1.455   6.052  0.00  0.00    +0.142 HD
ENDBRANCH  12  13
BRANCH  12  15
ATOM     15  CB  HIS A   1      -0.007  -2.346   8.654  0.00  0.00    +0.074 C 
BRANCH  15  16
ATOM     16  CG  HIS A   1      -0.528  -0.974   8.966  0.00  0.00    +0.082 A 
ATOM     17  CD2 HIS A   1      -1.554  -0.562   9.758  0.00  0.00    +0.115 A 
ATOM     18  NE2 HIS A   1      -1.567   0.813   9.724  0.00  0.00    -0.221 NA
ATOM     19  CE1 HIS A   1      -0.584   1.231   8.941  0.00  0.00    +0.199 A 
ATOM     20  ND1 HIS A   1       0.079   0.177   8.500  0.00  0.00    -0.227 NA
ENDBRANCH  15  16
ENDBRANCH  12  15
ENDBRANCH   8  12
ENDBRANCH   6  10
ENDBRANCH   2   6
ENDBRANCH   1   3
BRANCH   1  21
ATOM     21  C   PHE A   3      -8.072  -0.703   6.200  0.00  0.00    +0.241 C 
ATOM     22  O   PHE A   3      -8.692  -1.222   7.126  0.00  0.00    -0.273 OA
ATOM     23  N   ASN A   4      -8.093   0.596   5.916  0.00  0.00    -0.298 N 
ATOM     24  H   ASN A   4      -7.470   0.935   5.156  0.00  0.00    +0.150 HD
BRANCH  23  25
ATOM     25  CA  ASN A   4      -8.936   1.587   6.602  0.00  0.00    +0.146 C 
BRANCH  25  26
ATOM     26  C   ASN A   4     -10.182   2.014   5.830  0.00  0.00    +0.227 C 
ATOM     27  O   ASN A   4     -10.088   2.465   4.675  0.00  0.00    -0.286 OA
ENDBRANCH  25  26
BRANCH  25  28
ATOM     28  CB  ASN A   4      -8.119   2.855   6.875  0.00  0.00    +0.112 C 
BRANCH  28  29
ATOM     29  CG  ASN A   4      -7.303   2.775   8.169  0.00  0.00    +0.222 C 
ATOM     30  ND2 ASN A   4      -7.324   1.633   8.831  0.00  0.00    -0.329 N 
ATOM     31 HD21 ASN A   4      -6.792   1.537   9.719  0.00  0.00    +0.145 HD
ATOM     32 HD22 ASN A   4      -7.873   0.829   8.464  0.00  0.00    +0.145 HD
ATOM     33  OD1 ASN A   4      -6.672   3.747   8.562  0.00  0.00    -0.275 OA
ENDBRANCH  28  29
ENDBRANCH  25  28
ENDBRANCH  23  25
ENDBRANCH   1  21
BRANCH   1  34
ATOM     34  CB  PHE A   3      -8.066  -2.243   4.190  0.00  0.00    +0.055 C 
BRANCH  34  35
ATOM     35  CG  PHE A   3      -9.097  -3.179   4.722  0.00  0.00    -0.020 A 
ATOM     36  CD2 PHE A   3     -10.369  -2.716   5.082  0.00  0.00    -0.004 A 
ATOM     37  CE2 PHE A   3     -11.328  -3.603   5.585  0.00  0.00    -0.000 A 
ATOM     38  CZ  PHE A   3     -11.025  -4.973   5.713  0.00  0.00    -0.000 A 
ATOM     39  CE1 PHE A   3      -9.767  -5.450   5.347  0.00  0.00    -0.000 A 
ATOM     40  CD1 PHE A   3      -8.811  -4.553   4.850  0.00  0.00    -0.004 A 
ENDBRANCH  34  35
ENDBRANCH   1  34
TORSDOF 14
REMARK  Name = ../refined-set-2016/3kwa/3kwa_pocket.pdb
REMARK  147 active torsions:
REMARK  status: ('A' for Active; 'I' for Inactive)
REMARK    1  A    between atoms: _1  and  _3
REMARK    2  A    between atoms: _3  and  _4
REMARK    3  A    between atoms: _3  and  _6
REMARK    4  A    between atoms: _6  and  _7
REMARK    5  A    between atoms: _17  and  _19
REMARK    6  A    between atoms: _19  and  _20
REMARK    7  A    between atoms: _19  and  _22
REMARK    8  A    between atoms: _22  and  _23
REMARK    9  A    between atoms: _28  and  _29
REMARK   10  A    between atoms: _31  and  _33
REMARK   11  A    between atoms: _33  and  _34
REMARK   12  A    between atoms: _33  and  _36
REMARK   13  A    between atoms: _36  and  _37
REMARK   14  A    between atoms: _40  and  _41
REMARK   15  A    between atoms: _46  and  _48
REMARK   16  A    between atoms: _48  and  _49
REMARK   17  A    between atoms: _48  and  _51
REMARK   18  A    between atoms: _51  and  _52
REMARK   19  A    between atoms: _57  and  _59
REMARK   20  A    between atoms: _59  and  _60
REMARK   21  A    between atoms: _59  and  _62
REMARK   22  A    between atoms: _62  and  _63
REMARK   23  A    between atoms: _68  and  _70
REMARK   24  A    between atoms: _70  and  _71
REMARK   25  A    between atoms: _74  and  _76
REMARK   26  A    between atoms: _76  and  _77
REMARK   27  A    between atoms: _76  and  _79
REMARK   28  A    between atoms: _79  and  _80
REMARK   29  A    between atoms: _86  and  _88
REMARK   30  A    between atoms: _88  and  _89
REMARK   31  A    between atoms: _88  and  _91
REMARK   32  A    between atoms: _91  and  _92
REMARK   33  A    between atoms: _97  and  _99
REMARK   34  A    between atoms: _99  and  _100
REMARK   35  A    between atoms: _99  and  _102
REMARK   36  A    between atoms: _102  and  _103
REMARK   37  A    between atoms: _106  and  _108
REMARK   38  A    between atoms: _108  and  _109
REMARK   39  A    between atoms: _108  and  _111
REMARK   40  A    between atoms: _111  and  _112
REMARK   41  A    between atoms: _112  and  _113
REMARK   42  A    between atoms: _118  and  _120
REMARK   43  A    between atoms: _120  and  _121
REMARK   44  A    between atoms: _120  and  _123
REMARK   45  A    between atoms: _123  and  _124
REMARK   46  A    between atoms: _130  and  _132
REMARK   47  A    between atoms: _143  and  _146
REMARK   48  A    between atoms: _146  and  _147
REMARK   49  A    between atoms: _155  and  _156
REMARK   50  A    between atoms: _164  and  _166
REMARK   51  A    between atoms: _166  and  _167
REMARK   52  A    between atoms: _166  and  _169
REMARK   53  A    between atoms: _169  and  _170
REMARK   54  A    between atoms: _170  and  _171
REMARK   55  A    between atoms: _174  and  _176
REMARK   56  A    between atoms: _176  and  _177
REMARK   57  A    between atoms: _176  and  _179
REMARK   58  A    between atoms: _179  and  _180
REMARK   59  A    between atoms: _185  and  _187
REMARK   60  A    between atoms: _187  and  _188
REMARK   61  A    between atoms: _187  and  _190
REMARK   62  A    between atoms: _190  and  _191
REMARK   63  A    between atoms: _191  and  _192
REMARK   64  A    between atoms: _195  and  _197
REMARK   65  A    between atoms: _197  and  _198
REMARK   66  A    between atoms: _197  and  _200
REMARK   67  A    between atoms: _200  and  _201
REMARK   68  A    between atoms: _204  and  _206
REMARK   69  A    between atoms: _206  and  _207
REMARK   70  A    between atoms: _206  and  _209
REMARK   71  A    between atoms: _209  and  _210
REMARK   72  A    between atoms: _211  and  ZN_415
REMARK   73  A    between atoms: _215  and  _217
REMARK   74  A    between atoms: _217  and  _218
REMARK   75  A    between atoms: _217  and  _220
REMARK   76  A    between atoms: _220  and  _221
REMARK   77  A    between atoms: _224  and  _226
REMARK   78  A    between atoms: _226  and  _227
REMARK   79  A    between atoms: _226  and  _229
REMARK   80  A    between atoms: _232  and  _234
REMARK   81  A    between atoms: _234  and  _235
REMARK   82  A    between atoms: _234  and  _237
REMARK   83  A    between atoms: _237  and  _238
REMARK   84  A    between atoms: _243  and  _245
REMARK   85  A    between atoms: _245  and  _246
REMARK   86  A    between atoms: _245  and  _248
REMARK   87  A    between atoms: _248  and  _249
REMARK   88  A    between atoms: _255  and  _257
REMARK   89  A    between atoms: _257  and  _258
REMARK   90  A    between atoms: _257  and  _260
REMARK   91  A    between atoms: _263  and  _265
REMARK   92  A    between atoms: _265  and  _266
REMARK   93  A    between atoms: _265  and  _268
REMARK   94  A    between atoms: _268  and  _269
REMARK   95  A    between atoms: _272  and  _274
REMARK   96  A    between atoms: _274  and  _275
REMARK   97  A    between atoms: _278  and  _280
REMARK   98  A    between atoms: _280  and  _281
REMARK   99  A    between atoms: _280  and  _283
REMARK  100  A    between atoms: _286  and  _288
REMARK  101  A    between atoms: _288  and  _289
REMARK  102  A    between atoms: _288  and  _291
REMARK  103  A    between atoms: _291  and  _292
REMARK  104  A    between atoms: _295  and  _297
REMARK  105  A    between atoms: _297  and  _298
REMARK  106  A    between atoms: _300  and  _302
REMARK  107  A    between atoms: _302  and  _303
REMARK  108  A    between atoms: _302  and  _305
REMARK  109  A    between atoms: _305  and  _306
REMARK  110  A    between atoms: _308  and  _310
REMARK  111  A    between atoms: _310  and  _311
REMARK  112  A    between atoms: _310  and  _313
REMARK  113  A    between atoms: _313  and  _314
REMARK  114  A    between atoms: _317  and  _319
REMARK  115  A    between atoms: _319  and  _320
REMARK  116  A    between atoms: _319  and  _322
REMARK  117  A    between atoms: _322  and  _323
REMARK  118  A    between atoms: _326  and  _328
REMARK  119  A    between atoms: _328  and  _329
REMARK  120  A    between atoms: _328  and  _331
REMARK  121  A    between atoms: _331  and  _332
REMARK  122  A    between atoms: _336  and  _337
REMARK  123  A    between atoms: _343  and  _344
REMARK  124  A    between atoms: _349  and  _351
REMARK  125  A    between atoms: _351  and  _352
REMARK  126  A    between atoms: _351  and  _354
REMARK  127  A    between atoms: _354  and  _355
REMARK  128  A    between atoms: _358  and  _360
REMARK  129  A    between atoms: _360  and  _361
REMARK  130  A    between atoms: _360  and  _363
REMARK  131  A    between atoms: _363  and  _364
REMARK  132  A    between atoms: _367  and  _369
REMARK  133  A    between atoms: _369  and  _370
REMARK  134  A    between atoms: _369  and  _372
REMARK  135  A    between atoms: _374  and  _376
REMARK  136  A    between atoms: _376  and  _377
REMARK  137  A    between atoms: _376  and  _379
REMARK  138  A    between atoms: _382  and  _384
REMARK  139  A    between atoms: _384  and  _385
REMARK  140  A    between atoms: _384  and  _387
REMARK  141  A    between atoms: _387  and  _388
REMARK  142  A    between atoms: _398  and  _400
REMARK  143  A    between atoms: _400  and  _401
REMARK  144  A    between atoms: _400  and  _403
REMARK  145  A    between atoms: _403  and  _404
REMARK  146  A    between atoms: _404  and  _405
REMARK  147  A    between atoms: _405  and  _406
REMARK                            x       y       z     vdW  Elec       q    Type
REMARK                         _______ _______ _______ _____ _____    ______ ____
ROOT
ATOM      1  C   UNK A   4     -10.033  -1.365  10.257  0.00  0.00    +0.000 C 
ATOM      2  C   UNK A   4     -10.096  -2.635  11.113  0.00  0.00    +0.000 C 
ATOM      3  O   UNK A   4     -10.709  -2.636  12.187  0.00  0.00    +0.000 OA
ATOM      4  N   VAL A   5      -9.455  -3.699  10.633  0.00  0.00    +0.000 N 
ATOM      5  CA  VAL A   5      -9.431  -5.007  11.329  0.00  0.00    +0.000 C 
ATOM      6  C   VAL A   5      -8.009  -5.538  11.458  0.00  0.00    +0.000 C 
ATOM      7  N   UNK A   6      -7.822  -6.493  12.372  0.00  0.00    +0.000 N 
ATOM      8  H   UNK A   6      -8.586  -6.634  13.063  0.00  0.00    +0.000 HD
ATOM      9  C   UNK A   6      -6.648  -7.364  12.500  0.00  0.00    +0.000 C 
ATOM     10  C   UNK A   6      -5.980  -7.136  13.862  0.00  0.00    +0.000 C 
ATOM     11  C   UNK A   6      -5.808  -5.693  14.181  0.00  0.00    +0.000 A 
ATOM     12  C   UNK A   6      -6.700  -4.756  14.581  0.00  0.00    +0.000 A 
ATOM     13  N   UNK A   6      -6.022  -3.563  14.662  0.00  0.00    +0.000 N 
ATOM     14 ZN   UNK A   6      -6.644  -1.594  15.326  0.00  0.00    +0.000 Zn
ATOM     15  O   UNK A   6      -4.886  -0.875  15.668  0.00  0.00    +0.000 OA
ATOM     16  N   UNK A   4      -7.239  -0.601  13.658  0.00  0.00    +0.000 N 
ATOM     17  C   UNK A   4      -7.759   0.604  13.487  0.00  0.00    +0.000 A 
ATOM     18  N   UNK A   4      -8.276   0.664  12.273  0.00  0.00    +0.000 NA
ATOM     19  C   UNK A   4      -8.080  -0.540  11.633  0.00  0.00    +0.000 A 
ATOM     20  C   UNK A   4      -7.441  -1.339  12.523  0.00  0.00    +0.000 A 
ATOM     21  C   UNK A   6      -4.767  -3.760  14.300  0.00  0.00    +0.000 A 
ATOM     22  N   UNK A   6      -4.610  -5.038  14.012  0.00  0.00    +0.000 NA
ATOM     23  O   VAL A   5      -7.110  -5.072  10.760  0.00  0.00    +0.000 OA
ATOM     24  H   VAL A   5      -8.949  -3.608   9.729  0.00  0.00    +0.000 HD
ATOM     25  C   UNK A   4      -8.597  -0.821  10.259  0.00  0.00    +0.000 C 
ENDROOT
BRANCH  14  26
ATOM     26  N   UNK A   6      -8.023  -2.244  16.719  0.00  0.00    +0.000 N 
ATOM     27  C   UNK A   6      -7.698  -3.202  17.558  0.00  0.00    +0.000 A 
ATOM     28  N   UNK A   6      -8.801  -3.694  18.084  0.00  0.00    +0.000 NA
ATOM     29  C   UNK A   6      -9.881  -3.013  17.573  0.00  0.00    +0.000 A 
ATOM     30  C   UNK A   6      -9.393  -2.084  16.712  0.00  0.00    +0.000 A 
BRANCH  30  31
ATOM     31  C   UNK A   6     -10.089  -1.084  15.843  0.00  0.00    +0.000 C 
BRANCH  31  32
ATOM     32  C   UNK A   6     -11.574  -1.381  15.661  0.00  0.00    +0.000 C 
BRANCH  32  33
ATOM     33  C   UNK A   6     -12.252  -0.207  14.987  0.00  0.00    +0.000 C 
ATOM     34  N   UNK A   4     -13.098   0.503  15.712  0.00  0.00    +0.000 N 
ATOM     35  H   UNK A   4     -13.308   0.201  16.685  0.00  0.00    +0.000 HD
ATOM     36  O   UNK A   6     -12.010   0.041  13.831  0.00  0.00    +0.000 OA
BRANCH  34  37
ATOM     37  C   UNK A   4     -13.751   1.708  15.181  0.00  0.00    +0.000 C 
BRANCH  37  38
ATOM     38  C   UNK A   4     -13.164   2.828  16.005  0.00  0.00    +0.000 C 
ATOM     39  O   UNK A   4     -13.264   2.841  17.254  0.00  0.00    +0.000 OA
ATOM     40  N   VAL A   5     -12.509   3.744  15.302  0.00  0.00    +0.000 N 
ATOM     41  H   VAL A   5     -12.643   3.782  14.271  0.00  0.00    +0.000 HD
BRANCH  40  42
ATOM     42  CA  VAL A   5     -11.609   4.696  15.935  0.00  0.00    +0.000 C 
BRANCH  42  43
ATOM     43  C   VAL A   5     -12.296   6.056  16.008  0.00  0.00    +0.000 C 
ATOM     44  N   UNK A   6     -12.262   6.701  17.177  0.00  0.00    +0.000 N 
ATOM     45  H   UNK A   6     -11.702   6.301  17.957  0.00  0.00    +0.000 HD
ATOM     46  O   VAL A   5     -12.884   6.496  15.024  0.00  0.00    +0.000 OA
BRANCH  44  47
ATOM     47  C   UNK A   6     -12.996   7.968  17.398  0.00  0.00    +0.000 C 
BRANCH  47  48
ATOM     48  C   UNK A   6     -12.130   8.981  18.094  0.00  0.00    +0.000 C 
ATOM     49  O   UNK A   6     -11.346   8.597  18.946  0.00  0.00    +0.000 OA
ENDBRANCH  47  48
BRANCH  47  50
ATOM     50  C   UNK A   6     -14.256   7.769  18.273  0.00  0.00    +0.000 C 
BRANCH  50  51
ATOM     51  C   UNK A   6     -15.131   6.624  17.867  0.00  0.00    +0.000 A 
ATOM     52  N   UNK A   6     -14.798   5.306  18.117  0.00  0.00    +0.000 NA
ATOM     53  C   UNK A   6     -15.767   4.521  17.684  0.00  0.00    +0.000 A 
ATOM     54  N   UNK A   6     -16.707   5.276  17.144  0.00  0.00    +0.000 NA
ATOM     55  C   UNK A   6     -16.348   6.598  17.273  0.00  0.00    +0.000 A 
ENDBRANCH  50  51
ENDBRANCH  47  50
ENDBRANCH  44  47
ENDBRANCH  42  43
BRANCH  42  56
ATOM     56  CB  VAL A   5     -10.249   4.701  15.193  0.00  0.00    +0.000 C 
ATOM     57  CG2 VAL A   5      -9.199   5.520  15.925  0.00  0.00    +0.000 C 
ATOM     58  CG1 VAL A   5      -9.769   3.279  14.971  0.00  0.00    +0.000 C 
ENDBRANCH  42  56
ENDBRANCH  40  42
ENDBRANCH  37  38
BRANCH  37  59
ATOM     59  C   UNK A   4     -15.298   1.653  15.269  0.00  0.00    +0.000 C 
BRANCH  59  60
ATOM     60  C   UNK A   4     -15.971   0.508  14.483  0.00  0.00    +0.000 C 
ATOM     61  C   UNK A   4     -16.502  -0.514  15.428  0.00  0.00    +0.000 C 
ATOM     62  C   UNK A   4     -17.153   0.974  13.576  0.00  0.00    +0.000 C 
ENDBRANCH  59  60
ENDBRANCH  37  59
ENDBRANCH  34  37
ENDBRANCH  32  33
BRANCH  32  63
ATOM     63  N   UNK A   6     -11.760  -2.603  14.907  0.00  0.00    +0.000 N 
ATOM     64  C   LEU A   2     -12.319  -3.697  15.415  0.00  0.00    +0.000 C 
ATOM     65  O   LEU A   2     -12.702  -3.800  16.564  0.00  0.00    +0.000 OA
ATOM     66  H   UNK A   6     -11.440  -2.626  13.918  0.00  0.00    +0.000 HD
BRANCH  64  67
ATOM     67  CA  LEU A   2     -12.532  -4.833  14.448  0.00  0.00    +0.000 C 
BRANCH  67  68
ATOM     68  N   LEU A   2     -12.199  -6.079  15.078  0.00  0.00    +0.000 N 
ATOM     69  H   LEU A   2     -12.883  -6.480  15.751  0.00  0.00    +0.000 HD
ATOM     70  C   GLU A   1     -11.084  -6.751  14.862  0.00  0.00    +0.000 C 
ATOM     71  O   GLU A   1     -10.180  -6.367  14.150  0.00  0.00    +0.000 OA
BRANCH  70  72
ATOM     72  CA  GLU A   1     -10.997  -8.086  15.602  0.00  0.00    +0.000 C 
BRANCH  72  73
ATOM     73  N   GLU A   1     -10.529  -9.145  14.686  0.00  0.00    +0.000 NA
ATOM     74  H   GLU A   1     -10.015  -8.891  13.819  0.00  0.00    +0.000 HD
ENDBRANCH  72  73
BRANCH  72  75
ATOM     75  CB  GLU A   1     -10.119  -7.961  16.847  0.00  0.00    +0.000 C 
BRANCH  75  76
ATOM     76  CG  GLU A   1     -10.515  -6.872  17.890  0.00  0.00    +0.000 C 
BRANCH  76  77
ATOM     77  CD  GLU A   1      -9.557  -6.823  19.087  0.00  0.00    +0.000 C 
ATOM     78  OE2 GLU A   1      -9.386  -5.765  19.726  0.00  0.00    +0.000 OA
ATOM     79  OE1 GLU A   1      -8.951  -7.857  19.375  0.00  0.00    +0.000 OA
ENDBRANCH  76  77
ENDBRANCH  75  76
ENDBRANCH  72  75
ENDBRANCH  70  72
ENDBRANCH  67  68
BRANCH  67  80
ATOM     80  CB  LEU A   2     -14.006  -4.881  14.059  0.00  0.00    +0.000 C 
BRANCH  80  81
ATOM     81  CG  LEU A   2     -14.821  -3.672  13.622  0.00  0.00    +0.000 C 
ATOM     82  CD2 LEU A   2     -16.264  -4.175  13.411  0.00  0.00    +0.000 C 
ATOM     83  CD1 LEU A   2     -14.256  -2.995  12.366  0.00  0.00    +0.000 C 
ENDBRANCH  80  81
ENDBRANCH  67  80
ENDBRANCH  64  67
ENDBRANCH  32  63
ENDBRANCH  31  32
ENDBRANCH  30  31
ENDBRANCH  14  26
BRANCH   1  85
ATOM     84  C   UNK A   3     -11.433   0.657  10.204  0.00  0.00    +0.000 C 
ATOM     85  N   UNK A   4     -10.961  -0.396  10.853  0.00  0.00    +0.000 N 
ATOM     86  H   UNK A   4     -11.264  -0.545  11.837  0.00  0.00    +0.000 HD
ATOM     87  O   UNK A   3     -11.162   0.884   9.028  0.00  0.00    +0.000 OA
BRANCH  84  88
ATOM     88  C   UNK A   3     -12.346   1.592  11.018  0.00  0.00    +0.000 C 
BRANCH  88  91
ATOM     89  C   LEU A   2     -12.289   4.061  11.236  0.00  0.00    +0.000 C 
ATOM     90  O   LEU A   2     -12.436   4.071  12.468  0.00  0.00    +0.000 OA
ATOM     91  N   UNK A   3     -12.438   2.962  10.470  0.00  0.00    +0.000 N 
ATOM     92  H   UNK A   3     -12.625   3.082   9.454  0.00  0.00    +0.000 HD
BRANCH  89  93
ATOM     93  CA  LEU A   2     -11.960   5.365  10.512  0.00  0.00    +0.000 C 
BRANCH  93  95
ATOM     94  C   GLU A   1     -12.367   7.742  10.893  0.00  0.00    +0.000 C 
ATOM     95  N   LEU A   2     -12.151   6.525  11.377  0.00  0.00    +0.000 N 
ATOM     96  H   LEU A   2     -12.117   6.394  12.408  0.00  0.00    +0.000 HD
ATOM     97  O   GLU A   1     -12.432   7.975   9.683  0.00  0.00    +0.000 OA
BRANCH  94  98
ATOM     98  CA  GLU A   1     -12.597   8.863  11.934  0.00  0.00    +0.000 C 
BRANCH  98  99
ATOM     99  CB  GLU A   1     -11.266   9.502  12.467  0.00  0.00    +0.000 C 
ATOM    100  CG2 GLU A   1     -10.627   8.617  13.537  0.00  0.00    +0.000 C 
BRANCH  99 101
ATOM    101  CG1 GLU A   1     -10.309   9.804  11.296  0.00  0.00    +0.000 C 
ATOM    102  CD1 GLU A   1      -9.503  11.065  11.508  0.00  0.00    +0.000 C 
ENDBRANCH  99 101
ENDBRANCH  98  99
BRANCH  98 103
ATOM    103  N   GLU A   1     -13.504   8.483  13.016  0.00  0.00    +0.000 NA
ATOM    104  H   GLU A   1     -13.157   7.915  13.815  0.00  0.00    +0.000 HD
ENDBRANCH  98 103
ENDBRANCH  94  98
ENDBRANCH  93  95
BRANCH  93 105
ATOM    105  CB  LEU A   2     -10.525   5.357   9.929  0.00  0.00    +0.000 C 
BRANCH 105 106
ATOM    106  CG  LEU A   2      -9.363   5.445  10.962  0.00  0.00    +0.000 C 
BRANCH 106 107
ATOM    107  CD  LEU A   2      -8.823   4.088  11.299  0.00  0.00    +0.000 C 
ATOM    108  NE2 LEU A   2      -7.529   4.003  11.448  0.00  0.00    +0.000 N 
ATOM    109 HE21 LEU A   2      -7.087   3.082  11.643  0.00  0.00    +0.000 HD
ATOM    110 HE22 LEU A   2      -6.940   4.856  11.372  0.00  0.00    +0.000 HD
ATOM    111  OE1 LEU A   2      -9.563   3.108  11.380  0.00  0.00    +0.000 OA
ENDBRANCH 106 107
ENDBRANCH 105 106
ENDBRANCH  93 105
ENDBRANCH  89  93
ENDBRANCH  88  91
BRANCH  88 112
ATOM    112  C   UNK A   3     -13.724   0.953  11.302  0.00  0.00    +0.000 C 
BRANCH 112 113
ATOM    113  C   UNK A   3     -14.435   0.425  10.079  0.00  0.00    +0.000 A 
ATOM    114  C   UNK A   3     -15.542   1.095   9.565  0.00  0.00    +0.000 A 
ATOM    115  C   UNK A   3     -16.221   0.589   8.443  0.00  0.00    +0.000 A 
ATOM    116  C   UNK A   3     -15.794  -0.592   7.830  0.00  0.00    +0.000 A 
ATOM    117  C   UNK A   3     -14.706  -1.262   8.330  0.00  0.00    +0.000 A 
ATOM    118  C   UNK A   3     -14.031  -0.766   9.462  0.00  0.00    +0.000 A 
ENDBRANCH 112 113
ENDBRANCH  88 112
ENDBRANCH  84  88
ENDBRANCH   1  85
BRANCH   9 119
ATOM    119  C   UNK A   6      -7.143  -8.825  12.409  0.00  0.00    +0.000 C 
ATOM    120  O   UNK A   6      -8.180  -9.144  12.963  0.00  0.00    +0.000 OA
ENDBRANCH   9 119
BRANCH   5 121
ATOM    121  CB  VAL A   5     -10.226  -6.071  10.555  0.00  0.00    +0.000 C 
BRANCH 121 122
ATOM    122  CG  VAL A   5     -11.656  -5.691  10.179  0.00  0.00    +0.000 A 
ATOM    123  CD2 VAL A   5     -12.742  -6.256  10.860  0.00  0.00    +0.000 A 
ATOM    124  CE2 VAL A   5     -14.057  -5.991  10.464  0.00  0.00    +0.000 A 
ATOM    125  CZ  VAL A   5     -14.295  -5.146   9.363  0.00  0.00    +0.000 A 
ATOM    126  CE1 VAL A   5     -13.235  -4.629   8.658  0.00  0.00    +0.000 A 
ATOM    127  CD1 VAL A   5     -11.918  -4.890   9.078  0.00  0.00    +0.000 A 
ENDBRANCH 121 122
ENDBRANCH   5 121
TORSDOF 42
REMARK  Name = ../refined-set-2016/3kwa/3kwa_pocket.pdb
REMARK  147 active torsions:
REMARK  status: ('A' for Active; 'I' for Inactive)
REMARK    1  A    between atoms: _1  and  _3
REMARK    2  A    between atoms: _3  and  _4
REMARK    3  A    between atoms: _3  and  _6
REMARK    4  A    between atoms: _6  and  _7
REMARK    5  A    between atoms: _17  and  _19
REMARK    6  A    between atoms: _19  and  _20
REMARK    7  A    between atoms: _19  and  _22
REMARK    8  A    between atoms: _22  and  _23
REMARK    9  A    between atoms: _28  and  _29
REMARK   10  A    between atoms: _31  and  _33
REMARK   11  A    between atoms: _33  and  _34
REMARK   12  A    between atoms: _33  and  _36
REMARK   13  A    between atoms: _36  and  _37
REMARK   14  A    between atoms: _40  and  _41
REMARK   15  A    between atoms: _46  and  _48
REMARK   16  A    between atoms: _48  and  _49
REMARK   17  A    between atoms: _48  and  _51
REMARK   18  A    between atoms: _51  and  _52
REMARK   19  A    between atoms: _57  and  _59
REMARK   20  A    between atoms: _59  and  _60
REMARK   21  A    between atoms: _59  and  _62
REMARK   22  A    between atoms: _62  and  _63
REMARK   23  A    between atoms: _68  and  _70
REMARK   24  A    between atoms: _70  and  _71
REMARK   25  A    between atoms: _74  and  _76
REMARK   26  A    between atoms: _76  and  _77
REMARK   27  A    between atoms: _76  and  _79
REMARK   28  A    between atoms: _79  and  _80
REMARK   29  A    between atoms: _86  and  _88
REMARK   30  A    between atoms: _88  and  _89
REMARK   31  A    between atoms: _88  and  _91
REMARK   32  A    between atoms: _91  and  _92
REMARK   33  A    between atoms: _97  and  _99
REMARK   34  A    between atoms: _99  and  _100
REMARK   35  A    between atoms: _99  and  _102
REMARK   36  A    between atoms: _102  and  _103
REMARK   37  A    between atoms: _106  and  _108
REMARK   38  A    between atoms: _108  and  _109
REMARK   39  A    between atoms: _108  and  _111
REMARK   40  A    between atoms: _111  and  _112
REMARK   41  A    between atoms: _112  and  _113
REMARK   42  A    between atoms: _118  and  _120
REMARK   43  A    between atoms: _120  and  _121
REMARK   44  A    between atoms: _120  and  _123
REMARK   45  A    between atoms: _123  and  _124
REMARK   46  A    between atoms: _130  and  _132
REMARK   47  A    between atoms: _143  and  _146
REMARK   48  A    between atoms: _146  and  _147
REMARK   49  A    between atoms: _155  and  _156
REMARK   50  A    between atoms: _164  and  _166
REMARK   51  A    between atoms: _166  and  _167
REMARK   52  A    between atoms: _166  and  _169
REMARK   53  A    between atoms: _169  and  _170
REMARK   54  A    between atoms: _170  and  _171
REMARK   55  A    between atoms: _174  and  _176
REMARK   56  A    between atoms: _176  and  _177
REMARK   57  A    between atoms: _176  and  _179
REMARK   58  A    between atoms: _179  and  _180
REMARK   59  A    between atoms: _185  and  _187
REMARK   60  A    between atoms: _187  and  _188
REMARK   61  A    between atoms: _187  and  _190
REMARK   62  A    between atoms: _190  and  _191
REMARK   63  A    between atoms: _191  and  _192
REMARK   64  A    between atoms: _195  and  _197
REMARK   65  A    between atoms: _197  and  _198
REMARK   66  A    between atoms: _197  and  _200
REMARK   67  A    between atoms: _200  and  _201
REMARK   68  A    between atoms: _204  and  _206
REMARK   69  A    between atoms: _206  and  _207
REMARK   70  A    between atoms: _206  and  _209
REMARK   71  A    between atoms: _209  and  _210
REMARK   72  A    between atoms: _211  and  ZN_415
REMARK   73  A    between atoms: _215  and  _217
REMARK   74  A    between atoms: _217  and  _218
REMARK   75  A    between atoms: _217  and  _220
REMARK   76  A    between atoms: _220  and  _221
REMARK   77  A    between atoms: _224  and  _226
REMARK   78  A    between atoms: _226  and  _227
REMARK   79  A    between atoms: _226  and  _229
REMARK   80  A    between atoms: _232  and  _234
REMARK   81  A    between atoms: _234  and  _235
REMARK   82  A    between atoms: _234  and  _237
REMARK   83  A    between atoms: _237  and  _238
REMARK   84  A    between atoms: _243  and  _245
REMARK   85  A    between atoms: _245  and  _246
REMARK   86  A    between atoms: _245  and  _248
REMARK   87  A    between atoms: _248  and  _249
REMARK   88  A    between atoms: _255  and  _257
REMARK   89  A    between atoms: _257  and  _258
REMARK   90  A    between atoms: _257  and  _260
REMARK   91  A    between atoms: _263  and  _265
REMARK   92  A    between atoms: _265  and  _266
REMARK   93  A    between atoms: _265  and  _268
REMARK   94  A    between atoms: _268  and  _269
REMARK   95  A    between atoms: _272  and  _274
REMARK   96  A    between atoms: _274  and  _275
REMARK   97  A    between atoms: _278  and  _280
REMARK   98  A    between atoms: _280  and  _281
REMARK   99  A    between atoms: _280  and  _283
REMARK  100  A    between atoms: _286  and  _288
REMARK  101  A    between atoms: _288  and  _289
REMARK  102  A    between atoms: _288  and  _291
REMARK  103  A    between atoms: _291  and  _292
REMARK  104  A    between atoms: _295  and  _297
REMARK  105  A    between atoms: _297  and  _298
REMARK  106  A    between atoms: _300  and  _302
REMARK  107  A    between atoms: _302  and  _303
REMARK  108  A    between atoms: _302  and  _305
REMARK  109  A    between atoms: _305  and  _306
REMARK  110  A    between atoms: _308  and  _310
REMARK  111  A    between atoms: _310  and  _311
REMARK  112  A    between atoms: _310  and  _313
REMARK  113  A    between atoms: _313  and  _314
REMARK  114  A    between atoms: _317  and  _319
REMARK  115  A    between atoms: _319  and  _320
REMARK  116  A    between atoms: _319  and  _322
REMARK  117  A    between atoms: _322  and  _323
REMARK  118  A    between atoms: _326  and  _328
REMARK  119  A    between atoms: _328  and  _329
REMARK  120  A    between atoms: _328  and  _331
REMARK  121  A    between atoms: _331  and  _332
REMARK  122  A    between atoms: _336  and  _337
REMARK  123  A    between atoms: _343  and  _344
REMARK  124  A    between atoms: _349  and  _351
REMARK  125  A    between atoms: _351  and  _352
REMARK  126  A    between atoms: _351  and  _354
REMARK  127  A    between atoms: _354  and  _355
REMARK  128  A    between atoms: _358  and  _360
REMARK  129  A    between atoms: _360  and  _361
REMARK  130  A    between atoms: _360  and  _363
REMARK  131  A    between atoms: _363  and  _364
REMARK  132  A    between atoms: _367  and  _369
REMARK  133  A    between atoms: _369  and  _370
REMARK  134  A    between atoms: _369  and  _372
REMARK  135  A    between atoms: _374  and  _376
REMARK  136  A    between atoms: _376  and  _377
REMARK  137  A    between atoms: _376  and  _379
REMARK  138  A    between atoms: _382  and  _384
REMARK  139  A    between atoms: _384  and  _385
REMARK  140  A    between atoms: _384  and  _387
REMARK  141  A    between atoms: _387  and  _388
REMARK  142  A    between atoms: _398  and  _400
REMARK  143  A    between atoms: _400  and  _401
REMARK  144  A    between atoms: _400  and  _403
REMARK  145  A    between atoms: _403  and  _404
REMARK  146  A    between atoms: _404  and  _405
REMARK  147  A    between atoms: _405  and  _406
REMARK                            x       y       z     vdW  Elec       q    Type
REMARK                         _______ _______ _______ _____ _____    ______ ____
ROOT
ATOM      1  C   GLU A   1      -5.913  -8.554  20.994  0.00  0.00    +0.238 C 
ATOM      2  O   GLU A   1      -5.110  -9.093  21.753  0.00  0.00    -0.274 OA
ATOM      3  N   HIS A   2      -7.095  -8.142  21.404  0.00  0.00    -0.298 N 
ATOM      4  H   HIS A   2      -7.695  -7.558  20.788  0.00  0.00    +0.150 HD
ENDROOT
BRANCH   1   5
ATOM      5  CA  GLU A   1      -5.591  -8.368  19.512  0.00  0.00    +0.145 C 
BRANCH   5   6
ATOM      6  N   GLU A   1      -6.576  -9.025  18.675  0.00  0.00    -0.238 NA
ATOM      7  H   GLU A   1      -7.401  -8.481  18.351  0.00  0.00    +0.142 HD
ENDBRANCH   5   6
BRANCH   5   8
ATOM      8  CB  GLU A   1      -5.441  -6.888  19.124  0.00  0.00    +0.038 C 
BRANCH   8   9
ATOM      9  CG  GLU A   1      -4.813  -6.761  17.741  0.00  0.00    +0.116 C 
BRANCH   9  10
ATOM     10  CD  GLU A   1      -4.251  -5.370  17.464  0.00  0.00    +0.365 C 
ATOM     11  OE2 GLU A   1      -4.895  -4.388  17.863  0.00  0.00    -0.246 OA
ATOM     12  OE1 GLU A   1      -3.174  -5.271  16.826  0.00  0.00    -0.246 OA
ENDBRANCH   9  10
ENDBRANCH   8   9
ENDBRANCH   5   8
ENDBRANCH   1   5
BRANCH   3  13
ATOM     13  CA  HIS A   2      -7.545  -8.520  22.736  0.00  0.00    +0.143 C 
BRANCH  13  14
ATOM     14  C   HIS A   2      -7.804 -10.018  22.886  0.00  0.00    +0.227 C 
ATOM     15  O   HIS A   2      -8.028 -10.773  21.884  0.00  0.00    -0.286 OA
ENDBRANCH  13  14
BRANCH  13  16
ATOM     16  CB  HIS A   2      -8.749  -7.673  23.148  0.00  0.00    +0.075 C 
BRANCH  16  17
ATOM     17  CG  HIS A   2      -8.393  -6.233  23.372  0.00  0.00    +0.082 A 
ATOM     18  CD2 HIS A   2      -7.919  -5.596  24.465  0.00  0.00    +0.115 A 
ATOM     19  NE2 HIS A   2      -7.734  -4.277  24.120  0.00  0.00    -0.221 NA
ATOM     20  CE1 HIS A   2      -8.049  -4.117  22.847  0.00  0.00    +0.199 A 
ATOM     21  ND1 HIS A   2      -8.436  -5.288  22.371  0.00  0.00    -0.227 NA
ENDBRANCH  16  17
ENDBRANCH  13  16
ENDBRANCH   3  13
TORSDOF 9
REMARK  Name = ../refined-set-2016/3kwa/3kwa_pocket.pdb
REMARK  147 active torsions:
REMARK  status: ('A' for Active; 'I' for Inactive)
REMARK    1  A    between atoms: _1  and  _3
REMARK    2  A    between atoms: _3  and  _4
REMARK    3  A    between atoms: _3  and  _6
REMARK    4  A    between atoms: _6  and  _7
REMARK    5  A    between atoms: _17  and  _19
REMARK    6  A    between atoms: _19  and  _20
REMARK    7  A    between atoms: _19  and  _22
REMARK    8  A    between atoms: _22  and  _23
REMARK    9  A    between atoms: _28  and  _29
REMARK   10  A    between atoms: _31  and  _33
REMARK   11  A    between atoms: _33  and  _34
REMARK   12  A    between atoms: _33  and  _36
REMARK   13  A    between atoms: _36  and  _37
REMARK   14  A    between atoms: _40  and  _41
REMARK   15  A    between atoms: _46  and  _48
REMARK   16  A    between atoms: _48  and  _49
REMARK   17  A    between atoms: _48  and  _51
REMARK   18  A    between atoms: _51  and  _52
REMARK   19  A    between atoms: _57  and  _59
REMARK   20  A    between atoms: _59  and  _60
REMARK   21  A    between atoms: _59  and  _62
REMARK   22  A    between atoms: _62  and  _63
REMARK   23  A    between atoms: _68  and  _70
REMARK   24  A    between atoms: _70  and  _71
REMARK   25  A    between atoms: _74  and  _76
REMARK   26  A    between atoms: _76  and  _77
REMARK   27  A    between atoms: _76  and  _79
REMARK   28  A    between atoms: _79  and  _80
REMARK   29  A    between atoms: _86  and  _88
REMARK   30  A    between atoms: _88  and  _89
REMARK   31  A    between atoms: _88  and  _91
REMARK   32  A    between atoms: _91  and  _92
REMARK   33  A    between atoms: _97  and  _99
REMARK   34  A    between atoms: _99  and  _100
REMARK   35  A    between atoms: _99  and  _102
REMARK   36  A    between atoms: _102  and  _103
REMARK   37  A    between atoms: _106  and  _108
REMARK   38  A    between atoms: _108  and  _109
REMARK   39  A    between atoms: _108  and  _111
REMARK   40  A    between atoms: _111  and  _112
REMARK   41  A    between atoms: _112  and  _113
REMARK   42  A    between atoms: _118  and  _120
REMARK   43  A    between atoms: _120  and  _121
REMARK   44  A    between atoms: _120  and  _123
REMARK   45  A    between atoms: _123  and  _124
REMARK   46  A    between atoms: _130  and  _132
REMARK   47  A    between atoms: _143  and  _146
REMARK   48  A    between atoms: _146  and  _147
REMARK   49  A    between atoms: _155  and  _156
REMARK   50  A    between atoms: _164  and  _166
REMARK   51  A    between atoms: _166  and  _167
REMARK   52  A    between atoms: _166  and  _169
REMARK   53  A    between atoms: _169  and  _170
REMARK   54  A    between atoms: _170  and  _171
REMARK   55  A    between atoms: _174  and  _176
REMARK   56  A    between atoms: _176  and  _177
REMARK   57  A    between atoms: _176  and  _179
REMARK   58  A    between atoms: _179  and  _180
REMARK   59  A    between atoms: _185  and  _187
REMARK   60  A    between atoms: _187  and  _188
REMARK   61  A    between atoms: _187  and  _190
REMARK   62  A    between atoms: _190  and  _191
REMARK   63  A    between atoms: _191  and  _192
REMARK   64  A    between atoms: _195  and  _197
REMARK   65  A    between atoms: _197  and  _198
REMARK   66  A    between atoms: _197  and  _200
REMARK   67  A    between atoms: _200  and  _201
REMARK   68  A    between atoms: _204  and  _206
REMARK   69  A    between atoms: _206  and  _207
REMARK   70  A    between atoms: _206  and  _209
REMARK   71  A    between atoms: _209  and  _210
REMARK   72  A    between atoms: _211  and  ZN_415
REMARK   73  A    between atoms: _215  and  _217
REMARK   74  A    between atoms: _217  and  _218
REMARK   75  A    between atoms: _217  and  _220
REMARK   76  A    between atoms: _220  and  _221
REMARK   77  A    between atoms: _224  and  _226
REMARK   78  A    between atoms: _226  and  _227
REMARK   79  A    between atoms: _226  and  _229
REMARK   80  A    between atoms: _232  and  _234
REMARK   81  A    between atoms: _234  and  _235
REMARK   82  A    between atoms: _234  and  _237
REMARK   83  A    between atoms: _237  and  _238
REMARK   84  A    between atoms: _243  and  _245
REMARK   85  A    between atoms: _245  and  _246
REMARK   86  A    between atoms: _245  and  _248
REMARK   87  A    between atoms: _248  and  _249
REMARK   88  A    between atoms: _255  and  _257
REMARK   89  A    between atoms: _257  and  _258
REMARK   90  A    between atoms: _257  and  _260
REMARK   91  A    between atoms: _263  and  _265
REMARK   92  A    between atoms: _265  and  _266
REMARK   93  A    between atoms: _265  and  _268
REMARK   94  A    between atoms: _268  and  _269
REMARK   95  A    between atoms: _272  and  _274
REMARK   96  A    between atoms: _274  and  _275
REMARK   97  A    between atoms: _278  and  _280
REMARK   98  A    between atoms: _280  and  _281
REMARK   99  A    between atoms: _280  and  _283
REMARK  100  A    between atoms: _286  and  _288
REMARK  101  A    between atoms: _288  and  _289
REMARK  102  A    between atoms: _288  and  _291
REMARK  103  A    between atoms: _291  and  _292
REMARK  104  A    between atoms: _295  and  _297
REMARK  105  A    between atoms: _297  and  _298
REMARK  106  A    between atoms: _300  and  _302
REMARK  107  A    between atoms: _302  and  _303
REMARK  108  A    between atoms: _302  and  _305
REMARK  109  A    between atoms: _305  and  _306
REMARK  110  A    between atoms: _308  and  _310
REMARK  111  A    between atoms: _310  and  _311
REMARK  112  A    between atoms: _310  and  _313
REMARK  113  A    between atoms: _313  and  _314
REMARK  114  A    between atoms: _317  and  _319
REMARK  115  A    between atoms: _319  and  _320
REMARK  116  A    between atoms: _319  and  _322
REMARK  117  A    between atoms: _322  and  _323
REMARK  118  A    between atoms: _326  and  _328
REMARK  119  A    between atoms: _328  and  _329
REMARK  120  A    between atoms: _328  and  _331
REMARK  121  A    between atoms: _331  and  _332
REMARK  122  A    between atoms: _336  and  _337
REMARK  123  A    between atoms: _343  and  _344
REMARK  124  A    between atoms: _349  and  _351
REMARK  125  A    between atoms: _351  and  _352
REMARK  126  A    between atoms: _351  and  _354
REMARK  127  A    between atoms: _354  and  _355
REMARK  128  A    between atoms: _358  and  _360
REMARK  129  A    between atoms: _360  and  _361
REMARK  130  A    between atoms: _360  and  _363
REMARK  131  A    between atoms: _363  and  _364
REMARK  132  A    between atoms: _367  and  _369
REMARK  133  A    between atoms: _369  and  _370
REMARK  134  A    between atoms: _369  and  _372
REMARK  135  A    between atoms: _374  and  _376
REMARK  136  A    between atoms: _376  and  _377
REMARK  137  A    between atoms: _376  and  _379
REMARK  138  A    between atoms: _382  and  _384
REMARK  139  A    between atoms: _384  and  _385
REMARK  140  A    between atoms: _384  and  _387
REMARK  141  A    between atoms: _387  and  _388
REMARK  142  A    between atoms: _398  and  _400
REMARK  143  A    between atoms: _400  and  _401
REMARK  144  A    between atoms: _400  and  _403
REMARK  145  A    between atoms: _403  and  _404
REMARK  146  A    between atoms: _404  and  _405
REMARK  147  A    between atoms: _405  and  _406
REMARK                            x       y       z     vdW  Elec       q    Type
REMARK                         _______ _______ _______ _____ _____    ______ ____
ROOT
ATOM      1  CB  PHE A   1      -7.876  13.019  14.122  0.00  0.00    +0.051 C 
ENDROOT
BRANCH   1   2
ATOM      2  CG  PHE A   1      -7.168  11.723  14.449  0.00  0.00    -0.020 A 
ATOM      3  CD2 PHE A   1      -7.750  10.788  15.298  0.00  0.00    -0.004 A 
ATOM      4  CE2 PHE A   1      -7.085   9.559  15.625  0.00  0.00    -0.000 A 
ATOM      5  CZ  PHE A   1      -5.835   9.303  15.086  0.00  0.00    -0.000 A 
ATOM      6  CE1 PHE A   1      -5.236  10.252  14.223  0.00  0.00    -0.000 A 
ATOM      7  CD1 PHE A   1      -5.906  11.435  13.904  0.00  0.00    -0.004 A 
ENDBRANCH   1   2
BRANCH   1   8
ATOM      8  CA  PHE A   1      -7.681  14.120  15.185  0.00  0.00    +0.137 C 
BRANCH   8   9
ATOM      9  N   PHE A   1      -8.191  15.434  14.750  0.00  0.00    -0.239 NA
ATOM     10  H   PHE A   1      -8.439  15.579  13.750  0.00  0.00    +0.142 HD
ENDBRANCH   8   9
BRANCH   8  11
ATOM     11  C   PHE A   1      -6.234  14.237  15.635  0.00  0.00    +0.224 C 
ATOM     12  O   PHE A   1      -5.829  13.538  16.542  0.00  0.00    -0.287 OA
ENDBRANCH   8  11
ENDBRANCH   1   8
TORSDOF 4
REMARK  Name = ../refined-set-2016/3kwa/3kwa_pocket.pdb
REMARK  147 active torsions:
REMARK  status: ('A' for Active; 'I' for Inactive)
REMARK    1  A    between atoms: _1  and  _3
REMARK    2  A    between atoms: _3  and  _4
REMARK    3  A    between atoms: _3  and  _6
REMARK    4  A    between atoms: _6  and  _7
REMARK    5  A    between atoms: _17  and  _19
REMARK    6  A    between atoms: _19  and  _20
REMARK    7  A    between atoms: _19  and  _22
REMARK    8  A    between atoms: _22  and  _23
REMARK    9  A    between atoms: _28  and  _29
REMARK   10  A    between atoms: _31  and  _33
REMARK   11  A    between atoms: _33  and  _34
REMARK   12  A    between atoms: _33  and  _36
REMARK   13  A    between atoms: _36  and  _37
REMARK   14  A    between atoms: _40  and  _41
REMARK   15  A    between atoms: _46  and  _48
REMARK   16  A    between atoms: _48  and  _49
REMARK   17  A    between atoms: _48  and  _51
REMARK   18  A    between atoms: _51  and  _52
REMARK   19  A    between atoms: _57  and  _59
REMARK   20  A    between atoms: _59  and  _60
REMARK   21  A    between atoms: _59  and  _62
REMARK   22  A    between atoms: _62  and  _63
REMARK   23  A    between atoms: _68  and  _70
REMARK   24  A    between atoms: _70  and  _71
REMARK   25  A    between atoms: _74  and  _76
REMARK   26  A    between atoms: _76  and  _77
REMARK   27  A    between atoms: _76  and  _79
REMARK   28  A    between atoms: _79  and  _80
REMARK   29  A    between atoms: _86  and  _88
REMARK   30  A    between atoms: _88  and  _89
REMARK   31  A    between atoms: _88  and  _91
REMARK   32  A    between atoms: _91  and  _92
REMARK   33  A    between atoms: _97  and  _99
REMARK   34  A    between atoms: _99  and  _100
REMARK   35  A    between atoms: _99  and  _102
REMARK   36  A    between atoms: _102  and  _103
REMARK   37  A    between atoms: _106  and  _108
REMARK   38  A    between atoms: _108  and  _109
REMARK   39  A    between atoms: _108  and  _111
REMARK   40  A    between atoms: _111  and  _112
REMARK   41  A    between atoms: _112  and  _113
REMARK   42  A    between atoms: _118  and  _120
REMARK   43  A    between atoms: _120  and  _121
REMARK   44  A    between atoms: _120  and  _123
REMARK   45  A    between atoms: _123  and  _124
REMARK   46  A    between atoms: _130  and  _132
REMARK   47  A    between atoms: _143  and  _146
REMARK   48  A    between atoms: _146  and  _147
REMARK   49  A    between atoms: _155  and  _156
REMARK   50  A    between atoms: _164  and  _166
REMARK   51  A    between atoms: _166  and  _167
REMARK   52  A    between atoms: _166  and  _169
REMARK   53  A    between atoms: _169  and  _170
REMARK   54  A    between atoms: _170  and  _171
REMARK   55  A    between atoms: _174  and  _176
REMARK   56  A    between atoms: _176  and  _177
REMARK   57  A    between atoms: _176  and  _179
REMARK   58  A    between atoms: _179  and  _180
REMARK   59  A    between atoms: _185  and  _187
REMARK   60  A    between atoms: _187  and  _188
REMARK   61  A    between atoms: _187  and  _190
REMARK   62  A    between atoms: _190  and  _191
REMARK   63  A    between atoms: _191  and  _192
REMARK   64  A    between atoms: _195  and  _197
REMARK   65  A    between atoms: _197  and  _198
REMARK   66  A    between atoms: _197  and  _200
REMARK   67  A    between atoms: _200  and  _201
REMARK   68  A    between atoms: _204  and  _206
REMARK   69  A    between atoms: _206  and  _207
REMARK   70  A    between atoms: _206  and  _209
REMARK   71  A    between atoms: _209  and  _210
REMARK   72  A    between atoms: _211  and  ZN_415
REMARK   73  A    between atoms: _215  and  _217
REMARK   74  A    between atoms: _217  and  _218
REMARK   75  A    between atoms: _217  and  _220
REMARK   76  A    between atoms: _220  and  _221
REMARK   77  A    between atoms: _224  and  _226
REMARK   78  A    between atoms: _226  and  _227
REMARK   79  A    between atoms: _226  and  _229
REMARK   80  A    between atoms: _232  and  _234
REMARK   81  A    between atoms: _234  and  _235
REMARK   82  A    between atoms: _234  and  _237
REMARK   83  A    between atoms: _237  and  _238
REMARK   84  A    between atoms: _243  and  _245
REMARK   85  A    between atoms: _245  and  _246
REMARK   86  A    between atoms: _245  and  _248
REMARK   87  A    between atoms: _248  and  _249
REMARK   88  A    between atoms: _255  and  _257
REMARK   89  A    between atoms: _257  and  _258
REMARK   90  A    between atoms: _257  and  _260
REMARK   91  A    between atoms: _263  and  _265
REMARK   92  A    between atoms: _265  and  _266
REMARK   93  A    between atoms: _265  and  _268
REMARK   94  A    between atoms: _268  and  _269
REMARK   95  A    between atoms: _272  and  _274
REMARK   96  A    between atoms: _274  and  _275
REMARK   97  A    between atoms: _278  and  _280
REMARK   98  A    between atoms: _280  and  _281
REMARK   99  A    between atoms: _280  and  _283
REMARK  100  A    between atoms: _286  and  _288
REMARK  101  A    between atoms: _288  and  _289
REMARK  102  A    between atoms: _288  and  _291
REMARK  103  A    between atoms: _291  and  _292
REMARK  104  A    between atoms: _295  and  _297
REMARK  105  A    between atoms: _297  and  _298
REMARK  106  A    between atoms: _300  and  _302
REMARK  107  A    between atoms: _302  and  _303
REMARK  108  A    between atoms: _302  and  _305
REMARK  109  A    between atoms: _305  and  _306
REMARK  110  A    between atoms: _308  and  _310
REMARK  111  A    between atoms: _310  and  _311
REMARK  112  A    between atoms: _310  and  _313
REMARK  113  A    between atoms: _313  and  _314
REMARK  114  A    between atoms: _317  and  _319
REMARK  115  A    between atoms: _319  and  _320
REMARK  116  A    between atoms: _319  and  _322
REMARK  117  A    between atoms: _322  and  _323
REMARK  118  A    between atoms: _326  and  _328
REMARK  119  A    between atoms: _328  and  _329
REMARK  120  A    between atoms: _328  and  _331
REMARK  121  A    between atoms: _331  and  _332
REMARK  122  A    between atoms: _336  and  _337
REMARK  123  A    between atoms: _343  and  _344
REMARK  124  A    between atoms: _349  and  _351
REMARK  125  A    between atoms: _351  and  _352
REMARK  126  A    between atoms: _351  and  _354
REMARK  127  A    between atoms: _354  and  _355
REMARK  128  A    between atoms: _358  and  _360
REMARK  129  A    between atoms: _360  and  _361
REMARK  130  A    between atoms: _360  and  _363
REMARK  131  A    between atoms: _363  and  _364
REMARK  132  A    between atoms: _367  and  _369
REMARK  133  A    between atoms: _369  and  _370
REMARK  134  A    between atoms: _369  and  _372
REMARK  135  A    between atoms: _374  and  _376
REMARK  136  A    between atoms: _376  and  _377
REMARK  137  A    between atoms: _376  and  _379
REMARK  138  A    between atoms: _382  and  _384
REMARK  139  A    between atoms: _384  and  _385
REMARK  140  A    between atoms: _384  and  _387
REMARK  141  A    between atoms: _387  and  _388
REMARK  142  A    between atoms: _398  and  _400
REMARK  143  A    between atoms: _400  and  _401
REMARK  144  A    between atoms: _400  and  _403
REMARK  145  A    between atoms: _403  and  _404
REMARK  146  A    between atoms: _404  and  _405
REMARK  147  A    between atoms: _405  and  _406
REMARK                            x       y       z     vdW  Elec       q    Type
REMARK                         _______ _______ _______ _____ _____    ______ ____
ROOT
ATOM      1  CA  VAL A   1      -3.806  12.101  19.912  0.00  0.00    +0.133 C 
ENDROOT
BRANCH   1   2
ATOM      2  CB  VAL A   1      -3.237  11.408  18.623  0.00  0.00    +0.023 C 
ATOM      3  CG2 VAL A   1      -4.350  10.664  17.908  0.00  0.00    +0.002 C 
ATOM      4  CG1 VAL A   1      -2.545  12.399  17.694  0.00  0.00    +0.002 C 
ENDBRANCH   1   2
BRANCH   1   5
ATOM      5  N   VAL A   1      -4.783  13.154  19.612  0.00  0.00    -0.239 NA
ATOM      6  H   VAL A   1      -4.834  13.538  18.647  0.00  0.00    +0.142 HD
ENDBRANCH   1   5
BRANCH   1   7
ATOM      7  C   VAL A   1      -2.717  12.567  20.892  0.00  0.00    +0.224 C 
ATOM      8  O   VAL A   1      -2.042  11.752  21.519  0.00  0.00    -0.287 OA
ENDBRANCH   1   7
TORSDOF 3
REMARK  Name = ../refined-set-2016/3kwa/3kwa_pocket.pdb
REMARK  147 active torsions:
REMARK  status: ('A' for Active; 'I' for Inactive)
REMARK    1  A    between atoms: _1  and  _3
REMARK    2  A    between atoms: _3  and  _4
REMARK    3  A    between atoms: _3  and  _6
REMARK    4  A    between atoms: _6  and  _7
REMARK    5  A    between atoms: _17  and  _19
REMARK    6  A    between atoms: _19  and  _20
REMARK    7  A    between atoms: _19  and  _22
REMARK    8  A    between atoms: _22  and  _23
REMARK    9  A    between atoms: _28  and  _29
REMARK   10  A    between atoms: _31  and  _33
REMARK   11  A    between atoms: _33  and  _34
REMARK   12  A    between atoms: _33  and  _36
REMARK   13  A    between atoms: _36  and  _37
REMARK   14  A    between atoms: _40  and  _41
REMARK   15  A    between atoms: _46  and  _48
REMARK   16  A    between atoms: _48  and  _49
REMARK   17  A    between atoms: _48  and  _51
REMARK   18  A    between atoms: _51  and  _52
REMARK   19  A    between atoms: _57  and  _59
REMARK   20  A    between atoms: _59  and  _60
REMARK   21  A    between atoms: _59  and  _62
REMARK   22  A    between atoms: _62  and  _63
REMARK   23  A    between atoms: _68  and  _70
REMARK   24  A    between atoms: _70  and  _71
REMARK   25  A    between atoms: _74  and  _76
REMARK   26  A    between atoms: _76  and  _77
REMARK   27  A    between atoms: _76  and  _79
REMARK   28  A    between atoms: _79  and  _80
REMARK   29  A    between atoms: _86  and  _88
REMARK   30  A    between atoms: _88  and  _89
REMARK   31  A    between atoms: _88  and  _91
REMARK   32  A    between atoms: _91  and  _92
REMARK   33  A    between atoms: _97  and  _99
REMARK   34  A    between atoms: _99  and  _100
REMARK   35  A    between atoms: _99  and  _102
REMARK   36  A    between atoms: _102  and  _103
REMARK   37  A    between atoms: _106  and  _108
REMARK   38  A    between atoms: _108  and  _109
REMARK   39  A    between atoms: _108  and  _111
REMARK   40  A    between atoms: _111  and  _112
REMARK   41  A    between atoms: _112  and  _113
REMARK   42  A    between atoms: _118  and  _120
REMARK   43  A    between atoms: _120  and  _121
REMARK   44  A    between atoms: _120  and  _123
REMARK   45  A    between atoms: _123  and  _124
REMARK   46  A    between atoms: _130  and  _132
REMARK   47  A    between atoms: _143  and  _146
REMARK   48  A    between atoms: _146  and  _147
REMARK   49  A    between atoms: _155  and  _156
REMARK   50  A    between atoms: _164  and  _166
REMARK   51  A    between atoms: _166  and  _167
REMARK   52  A    between atoms: _166  and  _169
REMARK   53  A    between atoms: _169  and  _170
REMARK   54  A    between atoms: _170  and  _171
REMARK   55  A    between atoms: _174  and  _176
REMARK   56  A    between atoms: _176  and  _177
REMARK   57  A    between atoms: _176  and  _179
REMARK   58  A    between atoms: _179  and  _180
REMARK   59  A    between atoms: _185  and  _187
REMARK   60  A    between atoms: _187  and  _188
REMARK   61  A    between atoms: _187  and  _190
REMARK   62  A    between atoms: _190  and  _191
REMARK   63  A    between atoms: _191  and  _192
REMARK   64  A    between atoms: _195  and  _197
REMARK   65  A    between atoms: _197  and  _198
REMARK   66  A    between atoms: _197  and  _200
REMARK   67  A    between atoms: _200  and  _201
REMARK   68  A    between atoms: _204  and  _206
REMARK   69  A    between atoms: _206  and  _207
REMARK   70  A    between atoms: _206  and  _209
REMARK   71  A    between atoms: _209  and  _210
REMARK   72  A    between atoms: _211  and  ZN_415
REMARK   73  A    between atoms: _215  and  _217
REMARK   74  A    between atoms: _217  and  _218
REMARK   75  A    between atoms: _217  and  _220
REMARK   76  A    between atoms: _220  and  _221
REMARK   77  A    between atoms: _224  and  _226
REMARK   78  A    between atoms: _226  and  _227
REMARK   79  A    between atoms: _226  and  _229
REMARK   80  A    between atoms: _232  and  _234
REMARK   81  A    between atoms: _234  and  _235
REMARK   82  A    between atoms: _234  and  _237
REMARK   83  A    between atoms: _237  and  _238
REMARK   84  A    between atoms: _243  and  _245
REMARK   85  A    between atoms: _245  and  _246
REMARK   86  A    between atoms: _245  and  _248
REMARK   87  A    between atoms: _248  and  _249
REMARK   88  A    between atoms: _255  and  _257
REMARK   89  A    between atoms: _257  and  _258
REMARK   90  A    between atoms: _257  and  _260
REMARK   91  A    between atoms: _263  and  _265
REMARK   92  A    between atoms: _265  and  _266
REMARK   93  A    between atoms: _265  and  _268
REMARK   94  A    between atoms: _268  and  _269
REMARK   95  A    between atoms: _272  and  _274
REMARK   96  A    between atoms: _274  and  _275
REMARK   97  A    between atoms: _278  and  _280
REMARK   98  A    between atoms: _280  and  _281
REMARK   99  A    between atoms: _280  and  _283
REMARK  100  A    between atoms: _286  and  _288
REMARK  101  A    between atoms: _288  and  _289
REMARK  102  A    between atoms: _288  and  _291
REMARK  103  A    between atoms: _291  and  _292
REMARK  104  A    between atoms: _295  and  _297
REMARK  105  A    between atoms: _297  and  _298
REMARK  106  A    between atoms: _300  and  _302
REMARK  107  A    between atoms: _302  and  _303
REMARK  108  A    between atoms: _302  and  _305
REMARK  109  A    between atoms: _305  and  _306
REMARK  110  A    between atoms: _308  and  _310
REMARK  111  A    between atoms: _310  and  _311
REMARK  112  A    between atoms: _310  and  _313
REMARK  113  A    between atoms: _313  and  _314
REMARK  114  A    between atoms: _317  and  _319
REMARK  115  A    between atoms: _319  and  _320
REMARK  116  A    between atoms: _319  and  _322
REMARK  117  A    between atoms: _322  and  _323
REMARK  118  A    between atoms: _326  and  _328
REMARK  119  A    between atoms: _328  and  _329
REMARK  120  A    between atoms: _328  and  _331
REMARK  121  A    between atoms: _331  and  _332
REMARK  122  A    between atoms: _336  and  _337
REMARK  123  A    between atoms: _343  and  _344
REMARK  124  A    between atoms: _349  and  _351
REMARK  125  A    between atoms: _351  and  _352
REMARK  126  A    between atoms: _351  and  _354
REMARK  127  A    between atoms: _354  and  _355
REMARK  128  A    between atoms: _358  and  _360
REMARK  129  A    between atoms: _360  and  _361
REMARK  130  A    between atoms: _360  and  _363
REMARK  131  A    between atoms: _363  and  _364
REMARK  132  A    between atoms: _367  and  _369
REMARK  133  A    between atoms: _369  and  _370
REMARK  134  A    between atoms: _369  and  _372
REMARK  135  A    between atoms: _374  and  _376
REMARK  136  A    between atoms: _376  and  _377
REMARK  137  A    between atoms: _376  and  _379
REMARK  138  A    between atoms: _382  and  _384
REMARK  139  A    between atoms: _384  and  _385
REMARK  140  A    between atoms: _384  and  _387
REMARK  141  A    between atoms: _387  and  _388
REMARK  142  A    between atoms: _398  and  _400
REMARK  143  A    between atoms: _400  and  _401
REMARK  144  A    between atoms: _400  and  _403
REMARK  145  A    between atoms: _403  and  _404
REMARK  146  A    between atoms: _404  and  _405
REMARK  147  A    between atoms: _405  and  _406
REMARK                            x       y       z     vdW  Elec       q    Type
REMARK                         _______ _______ _______ _____ _____    ______ ____
ROOT
ATOM      1  CA  VAL A   3     -11.925   2.849  20.248  0.00  0.00    +0.149 C 
ENDROOT
BRANCH   1   3
ATOM      2  C   ALA A   2     -12.194   5.215  20.878  0.00  0.00    +0.241 C 
ATOM      3  N   VAL A   3     -11.825   3.967  21.205  0.00  0.00    -0.297 N 
ATOM      4  H   VAL A   3     -11.458   3.783  22.160  0.00  0.00    +0.150 HD
ATOM      5  O   ALA A   2     -12.550   5.513  19.752  0.00  0.00    -0.273 OA
BRANCH   2   6
ATOM      6  CA  ALA A   2     -12.111   6.291  21.972  0.00  0.00    +0.149 C 
ATOM      7  CB  ALA A   2     -13.482   6.769  22.356  0.00  0.00    +0.031 C 
BRANCH   6  10
ATOM      8  C   LEU A   1     -10.269   7.920  22.228  0.00  0.00    +0.238 C 
ATOM      9  O   LEU A   1      -9.991   7.558  23.361  0.00  0.00    -0.274 OA
ATOM     10  N   ALA A   2     -11.286   7.432  21.527  0.00  0.00    -0.297 N 
ATOM     11  H   ALA A   2     -11.514   7.878  20.615  0.00  0.00    +0.150 HD
BRANCH   8  12
ATOM     12  CA  LEU A   1      -9.397   8.898  21.499  0.00  0.00    +0.145 C 
BRANCH  12  13
ATOM     13  N   LEU A   1      -8.782   9.920  22.365  0.00  0.00    -0.238 NA
ATOM     14  H   LEU A   1      -8.244   9.618  23.202  0.00  0.00    +0.142 HD
ENDBRANCH  12  13
BRANCH  12  15
ATOM     15  CB  LEU A   1      -8.350   8.098  20.688  0.00  0.00    +0.026 C 
BRANCH  15  16
ATOM     16  CG  LEU A   1      -7.415   8.713  19.627  0.00  0.00    +0.002 C 
ATOM     17  CD2 LEU A   1      -6.720   7.600  18.840  0.00  0.00    +0.000 C 
ATOM     18  CD1 LEU A   1      -8.141   9.610  18.654  0.00  0.00    +0.000 C 
ENDBRANCH  15  16
ENDBRANCH  12  15
ENDBRANCH   8  12
ENDBRANCH   6  10
ENDBRANCH   2   6
ENDBRANCH   1   3
BRANCH   1  19
ATOM     19  C   VAL A   3     -12.904   1.775  20.708  0.00  0.00    +0.241 C 
ATOM     20  O   VAL A   3     -12.768   1.232  21.791  0.00  0.00    -0.273 OA
ATOM     21  N   LEU A   4     -13.898   1.493  19.870  0.00  0.00    -0.297 N 
ATOM     22  H   LEU A   4     -14.073   2.154  19.086  0.00  0.00    +0.150 HD
BRANCH  21  23
ATOM     23  CA  LEU A   4     -14.765   0.314  19.975  0.00  0.00    +0.149 C 
BRANCH  23  24
ATOM     24  C   LEU A   4     -14.121  -0.920  19.381  0.00  0.00    +0.241 C 
ATOM     25  N   GLY A   5     -13.901  -1.956  20.199  0.00  0.00    -0.296 N 
ATOM     26  H   GLY A   5     -14.182  -1.854  21.195  0.00  0.00    +0.150 HD
ATOM     27  O   LEU A   4     -13.887  -0.939  18.192  0.00  0.00    -0.273 OA
BRANCH  25  28
ATOM     28  CA  GLY A   5     -13.288  -3.231  19.787  0.00  0.00    +0.163 C 
BRANCH  28  29
ATOM     29  C   GLY A   5     -14.334  -4.348  19.743  0.00  0.00    +0.229 C 
ATOM     30  O   GLY A   5     -15.087  -4.566  20.695  0.00  0.00    -0.286 OA
ENDBRANCH  28  29
ENDBRANCH  25  28
ENDBRANCH  23  24
BRANCH  23  31
ATOM     31  CB  LEU A   4     -16.053   0.526  19.182  0.00  0.00    +0.029 C 
BRANCH  31  32
ATOM     32  CG  LEU A   4     -17.382   0.721  19.872  0.00  0.00    +0.002 C 
ATOM     33  CD2 LEU A   4     -17.594  -0.267  21.022  0.00  0.00    +0.000 C 
ATOM     34  CD1 LEU A   4     -18.533   0.641  18.836  0.00  0.00    +0.000 C 
ENDBRANCH  31  32
ENDBRANCH  23  31
ENDBRANCH  21  23
ENDBRANCH   1  19
BRANCH   1  35
ATOM     35  CB  VAL A   3     -10.559   2.212  19.901  0.00  0.00    +0.027 C 
ATOM     36  CG2 VAL A   3      -9.602   3.252  19.421  0.00  0.00    +0.002 C 
ATOM     37  CG1 VAL A   3     -10.751   1.133  18.823  0.00  0.00    +0.002 C 
ENDBRANCH   1  35
TORSDOF 15
REMARK  Name = ../refined-set-2016/3kwa/3kwa_pocket.pdb
REMARK  147 active torsions:
REMARK  status: ('A' for Active; 'I' for Inactive)
REMARK    1  A    between atoms: _1  and  _3
REMARK    2  A    between atoms: _3  and  _4
REMARK    3  A    between atoms: _3  and  _6
REMARK    4  A    between atoms: _6  and  _7
REMARK    5  A    between atoms: _17  and  _19
REMARK    6  A    between atoms: _19  and  _20
REMARK    7  A    between atoms: _19  and  _22
REMARK    8  A    between atoms: _22  and  _23
REMARK    9  A    between atoms: _28  and  _29
REMARK   10  A    between atoms: _31  and  _33
REMARK   11  A    between atoms: _33  and  _34
REMARK   12  A    between atoms: _33  and  _36
REMARK   13  A    between atoms: _36  and  _37
REMARK   14  A    between atoms: _40  and  _41
REMARK   15  A    between atoms: _46  and  _48
REMARK   16  A    between atoms: _48  and  _49
REMARK   17  A    between atoms: _48  and  _51
REMARK   18  A    between atoms: _51  and  _52
REMARK   19  A    between atoms: _57  and  _59
REMARK   20  A    between atoms: _59  and  _60
REMARK   21  A    between atoms: _59  and  _62
REMARK   22  A    between atoms: _62  and  _63
REMARK   23  A    between atoms: _68  and  _70
REMARK   24  A    between atoms: _70  and  _71
REMARK   25  A    between atoms: _74  and  _76
REMARK   26  A    between atoms: _76  and  _77
REMARK   27  A    between atoms: _76  and  _79
REMARK   28  A    between atoms: _79  and  _80
REMARK   29  A    between atoms: _86  and  _88
REMARK   30  A    between atoms: _88  and  _89
REMARK   31  A    between atoms: _88  and  _91
REMARK   32  A    between atoms: _91  and  _92
REMARK   33  A    between atoms: _97  and  _99
REMARK   34  A    between atoms: _99  and  _100
REMARK   35  A    between atoms: _99  and  _102
REMARK   36  A    between atoms: _102  and  _103
REMARK   37  A    between atoms: _106  and  _108
REMARK   38  A    between atoms: _108  and  _109
REMARK   39  A    between atoms: _108  and  _111
REMARK   40  A    between atoms: _111  and  _112
REMARK   41  A    between atoms: _112  and  _113
REMARK   42  A    between atoms: _118  and  _120
REMARK   43  A    between atoms: _120  and  _121
REMARK   44  A    between atoms: _120  and  _123
REMARK   45  A    between atoms: _123  and  _124
REMARK   46  A    between atoms: _130  and  _132
REMARK   47  A    between atoms: _143  and  _146
REMARK   48  A    between atoms: _146  and  _147
REMARK   49  A    between atoms: _155  and  _156
REMARK   50  A    between atoms: _164  and  _166
REMARK   51  A    between atoms: _166  and  _167
REMARK   52  A    between atoms: _166  and  _169
REMARK   53  A    between atoms: _169  and  _170
REMARK   54  A    between atoms: _170  and  _171
REMARK   55  A    between atoms: _174  and  _176
REMARK   56  A    between atoms: _176  and  _177
REMARK   57  A    between atoms: _176  and  _179
REMARK   58  A    between atoms: _179  and  _180
REMARK   59  A    between atoms: _185  and  _187
REMARK   60  A    between atoms: _187  and  _188
REMARK   61  A    between atoms: _187  and  _190
REMARK   62  A    between atoms: _190  and  _191
REMARK   63  A    between atoms: _191  and  _192
REMARK   64  A    between atoms: _195  and  _197
REMARK   65  A    between atoms: _197  and  _198
REMARK   66  A    between atoms: _197  and  _200
REMARK   67  A    between atoms: _200  and  _201
REMARK   68  A    between atoms: _204  and  _206
REMARK   69  A    between atoms: _206  and  _207
REMARK   70  A    between atoms: _206  and  _209
REMARK   71  A    between atoms: _209  and  _210
REMARK   72  A    between atoms: _211  and  ZN_415
REMARK   73  A    between atoms: _215  and  _217
REMARK   74  A    between atoms: _217  and  _218
REMARK   75  A    between atoms: _217  and  _220
REMARK   76  A    between atoms: _220  and  _221
REMARK   77  A    between atoms: _224  and  _226
REMARK   78  A    between atoms: _226  and  _227
REMARK   79  A    between atoms: _226  and  _229
REMARK   80  A    between atoms: _232  and  _234
REMARK   81  A    between atoms: _234  and  _235
REMARK   82  A    between atoms: _234  and  _237
REMARK   83  A    between atoms: _237  and  _238
REMARK   84  A    between atoms: _243  and  _245
REMARK   85  A    between atoms: _245  and  _246
REMARK   86  A    between atoms: _245  and  _248
REMARK   87  A    between atoms: _248  and  _249
REMARK   88  A    between atoms: _255  and  _257
REMARK   89  A    between atoms: _257  and  _258
REMARK   90  A    between atoms: _257  and  _260
REMARK   91  A    between atoms: _263  and  _265
REMARK   92  A    between atoms: _265  and  _266
REMARK   93  A    between atoms: _265  and  _268
REMARK   94  A    between atoms: _268  and  _269
REMARK   95  A    between atoms: _272  and  _274
REMARK   96  A    between atoms: _274  and  _275
REMARK   97  A    between atoms: _278  and  _280
REMARK   98  A    between atoms: _280  and  _281
REMARK   99  A    between atoms: _280  and  _283
REMARK  100  A    between atoms: _286  and  _288
REMARK  101  A    between atoms: _288  and  _289
REMARK  102  A    between atoms: _288  and  _291
REMARK  103  A    between atoms: _291  and  _292
REMARK  104  A    between atoms: _295  and  _297
REMARK  105  A    between atoms: _297  and  _298
REMARK  106  A    between atoms: _300  and  _302
REMARK  107  A    between atoms: _302  and  _303
REMARK  108  A    between atoms: _302  and  _305
REMARK  109  A    between atoms: _305  and  _306
REMARK  110  A    between atoms: _308  and  _310
REMARK  111  A    between atoms: _310  and  _311
REMARK  112  A    between atoms: _310  and  _313
REMARK  113  A    between atoms: _313  and  _314
REMARK  114  A    between atoms: _317  and  _319
REMARK  115  A    between atoms: _319  and  _320
REMARK  116  A    between atoms: _319  and  _322
REMARK  117  A    between atoms: _322  and  _323
REMARK  118  A    between atoms: _326  and  _328
REMARK  119  A    between atoms: _328  and  _329
REMARK  120  A    between atoms: _328  and  _331
REMARK  121  A    between atoms: _331  and  _332
REMARK  122  A    between atoms: _336  and  _337
REMARK  123  A    between atoms: _343  and  _344
REMARK  124  A    between atoms: _349  and  _351
REMARK  125  A    between atoms: _351  and  _352
REMARK  126  A    between atoms: _351  and  _354
REMARK  127  A    between atoms: _354  and  _355
REMARK  128  A    between atoms: _358  and  _360
REMARK  129  A    between atoms: _360  and  _361
REMARK  130  A    between atoms: _360  and  _363
REMARK  131  A    between atoms: _363  and  _364
REMARK  132  A    between atoms: _367  and  _369
REMARK  133  A    between atoms: _369  and  _370
REMARK  134  A    between atoms: _369  and  _372
REMARK  135  A    between atoms: _374  and  _376
REMARK  136  A    between atoms: _376  and  _377
REMARK  137  A    between atoms: _376  and  _379
REMARK  138  A    between atoms: _382  and  _384
REMARK  139  A    between atoms: _384  and  _385
REMARK  140  A    between atoms: _384  and  _387
REMARK  141  A    between atoms: _387  and  _388
REMARK  142  A    between atoms: _398  and  _400
REMARK  143  A    between atoms: _400  and  _401
REMARK  144  A    between atoms: _400  and  _403
REMARK  145  A    between atoms: _403  and  _404
REMARK  146  A    between atoms: _404  and  _405
REMARK  147  A    between atoms: _405  and  _406
REMARK                            x       y       z     vdW  Elec       q    Type
REMARK                         _______ _______ _______ _____ _____    ______ ____
ROOT
ATOM      1  C   THR A   4       0.910   1.317  16.217  0.00  0.00    +0.246 C 
ATOM      2  O   THR A   4       0.391   2.288  16.790  0.00  0.00    -0.273 OA
ATOM      3  N   PRO A   5       2.198   1.319  15.800  0.00  0.00    -0.272 N 
ATOM      4  CA  PRO A   5       2.923   2.586  15.925  0.00  0.00    +0.152 C 
ATOM      5  CB  PRO A   5       4.231   2.301  15.182  0.00  0.00    +0.031 C 
ATOM      6  CG  PRO A   5       4.499   0.909  15.498  0.00  0.00    +0.024 C 
ATOM      7  CD  PRO A   5       3.096   0.253  15.320  0.00  0.00    +0.094 C 
ENDROOT
BRANCH   4   8
ATOM      8  C   PRO A   5       2.153   3.805  15.389  0.00  0.00    +0.244 C 
ATOM      9  N   PRO A   6       2.244   4.944  16.088  0.00  0.00    -0.272 N 
ATOM     10  CA  PRO A   6       3.116   5.288  17.238  0.00  0.00    +0.152 C 
ATOM     11  CB  PRO A   6       3.279   6.810  17.086  0.00  0.00    +0.031 C 
ATOM     12  CG  PRO A   6       2.085   7.276  16.337  0.00  0.00    +0.024 C 
ATOM     13  CD  PRO A   6       1.422   6.106  15.671  0.00  0.00    +0.094 C 
ATOM     14  O   PRO A   5       1.473   3.710  14.340  0.00  0.00    -0.273 OA
BRANCH  10  15
ATOM     15  C   PRO A   6       2.696   4.930  18.679  0.00  0.00    +0.241 C 
ATOM     16  O   PRO A   6       3.305   5.429  19.637  0.00  0.00    -0.273 OA
ATOM     17  N   LEU A   7       1.683   4.086  18.841  0.00  0.00    -0.297 N 
ATOM     18  H   LEU A   7       1.132   3.804  18.005  0.00  0.00    +0.150 HD
BRANCH  17  19
ATOM     19  CA  LEU A   7       1.305   3.531  20.156  0.00  0.00    +0.149 C 
BRANCH  19  20
ATOM     20  C   LEU A   7       0.955   4.565  21.254  0.00  0.00    +0.241 C 
ATOM     21  O   LEU A   7       1.162   4.315  22.439  0.00  0.00    -0.273 OA
ATOM     22  N   LEU A   8       0.392   5.698  20.848  0.00  0.00    -0.298 N 
ATOM     23  H   LEU A   8       0.177   5.815  19.837  0.00  0.00    +0.150 HD
BRANCH  22  24
ATOM     24  CA  LEU A   8       0.058   6.801  21.778  0.00  0.00    +0.137 C 
BRANCH  24  25
ATOM     25  C   LEU A   8      -1.019   6.433  22.813  0.00  0.00    +0.227 C 
ATOM     26  O   LEU A   8      -2.053   5.841  22.498  0.00  0.00    -0.286 OA
ENDBRANCH  24  25
BRANCH  24  27
ATOM     27  CB  LEU A   8      -0.304   8.096  21.024  0.00  0.00    +0.028 C 
BRANCH  27  28
ATOM     28  CG  LEU A   8       0.783   8.591  20.056  0.00  0.00    +0.002 C 
ATOM     29  CD2 LEU A   8       2.001   9.115  20.815  0.00  0.00    +0.000 C 
ATOM     30  CD1 LEU A   8       0.288   9.616  19.017  0.00  0.00    +0.000 C 
ENDBRANCH  27  28
ENDBRANCH  24  27
ENDBRANCH  22  24
ENDBRANCH  19  20
BRANCH  19  31
ATOM     31  CB  LEU A   7       2.356   2.517  20.640  0.00  0.00    +0.029 C 
BRANCH  31  32
ATOM     32  CG  LEU A   7       2.708   1.311  19.748  0.00  0.00    +0.002 C 
ATOM     33  CD2 LEU A   7       4.150   0.809  20.001  0.00  0.00    +0.000 C 
ATOM     34  CD1 LEU A   7       1.709   0.146  19.901  0.00  0.00    +0.000 C 
ENDBRANCH  31  32
ENDBRANCH  19  31
ENDBRANCH  17  19
ENDBRANCH  10  15
ENDBRANCH   4   8
BRANCH   1  35
ATOM     35  CA  THR A   4       0.094   0.073  15.944  0.00  0.00    +0.176 C 
BRANCH  35  38
ATOM     36  C   THR A   3      -1.063  -1.039  17.783  0.00  0.00    +0.243 C 
ATOM     37  O   THR A   3      -0.405  -2.077  17.673  0.00  0.00    -0.273 OA
ATOM     38  N   THR A   4      -0.932  -0.005  16.968  0.00  0.00    -0.295 N 
ATOM     39  H   THR A   4      -1.596   0.790  17.066  0.00  0.00    +0.150 HD
BRANCH  36  40
ATOM     40  CA  THR A   3      -2.109  -0.894  18.876  0.00  0.00    +0.176 C 
BRANCH  40  43
ATOM     41  C   LEU A   2      -2.338   1.366  19.799  0.00  0.00    +0.241 C 
ATOM     42  O   LEU A   2      -1.407   1.159  20.591  0.00  0.00    -0.273 OA
ATOM     43  N   THR A   3      -2.735   0.437  18.919  0.00  0.00    -0.295 N 
ATOM     44  H   THR A   3      -3.501   0.661  18.253  0.00  0.00    +0.150 HD
BRANCH  41  45
ATOM     45  CA  LEU A   2      -3.102   2.734  19.806  0.00  0.00    +0.149 C 
BRANCH  45  48
ATOM     46  C   SER A   1      -3.686   2.578  22.167  0.00  0.00    +0.241 C 
ATOM     47  O   SER A   1      -4.540   1.731  21.979  0.00  0.00    -0.274 OA
ATOM     48  N   LEU A   2      -3.136   3.269  21.163  0.00  0.00    -0.297 N 
ATOM     49  H   LEU A   2      -2.725   4.205  21.353  0.00  0.00    +0.150 HD
BRANCH  46  50
ATOM     50  CA  SER A   1      -3.216   2.912  23.600  0.00  0.00    +0.174 C 
BRANCH  50  51
ATOM     51  N   SER A   1      -3.997   2.320  24.670  0.00  0.00    -0.236 NA
ATOM     52  H   SER A   1      -4.265   1.318  24.596  0.00  0.00    +0.142 HD
ENDBRANCH  50  51
BRANCH  50  53
ATOM     53  CB  SER A   1      -1.741   2.527  23.774  0.00  0.00    +0.163 C 
BRANCH  53  54
ATOM     54  OG  SER A   1      -1.426   1.256  23.205  0.00  0.00    -0.380 OA
ATOM     55  H   SER A   1      -1.621   1.273  22.234  0.00  0.00    +0.211 HD
ENDBRANCH  53  54
ENDBRANCH  50  53
ENDBRANCH  46  50
ENDBRANCH  45  48
BRANCH  45  56
ATOM     56  CB  LEU A   2      -2.449   3.747  18.866  0.00  0.00    +0.029 C 
BRANCH  56  57
ATOM     57  CG  LEU A   2      -2.932   5.228  18.852  0.00  0.00    +0.002 C 
ATOM     58  CD2 LEU A   2      -4.280   5.318  18.191  0.00  0.00    +0.000 C 
ATOM     59  CD1 LEU A   2      -1.942   6.099  18.165  0.00  0.00    +0.000 C 
ENDBRANCH  56  57
ENDBRANCH  45  56
ENDBRANCH  41  45
ENDBRANCH  40  43
BRANCH  40  60
ATOM     60  CB  THR A   3      -3.134  -2.035  18.707  0.00  0.00    +0.137 C 
ATOM     61  CG2 THR A   3      -4.058  -2.184  19.956  0.00  0.00    +0.034 C 
BRANCH  60  62
ATOM     62  OG1 THR A   3      -3.902  -1.794  17.535  0.00  0.00    -0.382 OA
ATOM     63  HG1 THR A   3      -4.563  -2.522  17.419  0.00  0.00    +0.210 HD
ENDBRANCH  60  62
ENDBRANCH  40  60
ENDBRANCH  36  40
ENDBRANCH  35  38
BRANCH  35  64
ATOM     64  CB  THR A   4      -0.541   0.296  14.537  0.00  0.00    +0.137 C 
ATOM     65  CG2 THR A   4      -1.393  -0.873  14.117  0.00  0.00    +0.034 C 
BRANCH  64  66
ATOM     66  OG1 THR A   4      -1.362   1.464  14.602  0.00  0.00    -0.382 OA
ATOM     67  HG1 THR A   4      -0.806   2.243  14.854  0.00  0.00    +0.210 HD
ENDBRANCH  64  66
ENDBRANCH  35  64
ENDBRANCH   1  35
TORSDOF 26
REMARK  Name = ../refined-set-2016/3kwa/3kwa_pocket.pdb
REMARK  147 active torsions:
REMARK  status: ('A' for Active; 'I' for Inactive)
REMARK    1  A    between atoms: _1  and  _3
REMARK    2  A    between atoms: _3  and  _4
REMARK    3  A    between atoms: _3  and  _6
REMARK    4  A    between atoms: _6  and  _7
REMARK    5  A    between atoms: _17  and  _19
REMARK    6  A    between atoms: _19  and  _20
REMARK    7  A    between atoms: _19  and  _22
REMARK    8  A    between atoms: _22  and  _23
REMARK    9  A    between atoms: _28  and  _29
REMARK   10  A    between atoms: _31  and  _33
REMARK   11  A    between atoms: _33  and  _34
REMARK   12  A    between atoms: _33  and  _36
REMARK   13  A    between atoms: _36  and  _37
REMARK   14  A    between atoms: _40  and  _41
REMARK   15  A    between atoms: _46  and  _48
REMARK   16  A    between atoms: _48  and  _49
REMARK   17  A    between atoms: _48  and  _51
REMARK   18  A    between atoms: _51  and  _52
REMARK   19  A    between atoms: _57  and  _59
REMARK   20  A    between atoms: _59  and  _60
REMARK   21  A    between atoms: _59  and  _62
REMARK   22  A    between atoms: _62  and  _63
REMARK   23  A    between atoms: _68  and  _70
REMARK   24  A    between atoms: _70  and  _71
REMARK   25  A    between atoms: _74  and  _76
REMARK   26  A    between atoms: _76  and  _77
REMARK   27  A    between atoms: _76  and  _79
REMARK   28  A    between atoms: _79  and  _80
REMARK   29  A    between atoms: _86  and  _88
REMARK   30  A    between atoms: _88  and  _89
REMARK   31  A    between atoms: _88  and  _91
REMARK   32  A    between atoms: _91  and  _92
REMARK   33  A    between atoms: _97  and  _99
REMARK   34  A    between atoms: _99  and  _100
REMARK   35  A    between atoms: _99  and  _102
REMARK   36  A    between atoms: _102  and  _103
REMARK   37  A    between atoms: _106  and  _108
REMARK   38  A    between atoms: _108  and  _109
REMARK   39  A    between atoms: _108  and  _111
REMARK   40  A    between atoms: _111  and  _112
REMARK   41  A    between atoms: _112  and  _113
REMARK   42  A    between atoms: _118  and  _120
REMARK   43  A    between atoms: _120  and  _121
REMARK   44  A    between atoms: _120  and  _123
REMARK   45  A    between atoms: _123  and  _124
REMARK   46  A    between atoms: _130  and  _132
REMARK   47  A    between atoms: _143  and  _146
REMARK   48  A    between atoms: _146  and  _147
REMARK   49  A    between atoms: _155  and  _156
REMARK   50  A    between atoms: _164  and  _166
REMARK   51  A    between atoms: _166  and  _167
REMARK   52  A    between atoms: _166  and  _169
REMARK   53  A    between atoms: _169  and  _170
REMARK   54  A    between atoms: _170  and  _171
REMARK   55  A    between atoms: _174  and  _176
REMARK   56  A    between atoms: _176  and  _177
REMARK   57  A    between atoms: _176  and  _179
REMARK   58  A    between atoms: _179  and  _180
REMARK   59  A    between atoms: _185  and  _187
REMARK   60  A    between atoms: _187  and  _188
REMARK   61  A    between atoms: _187  and  _190
REMARK   62  A    between atoms: _190  and  _191
REMARK   63  A    between atoms: _191  and  _192
REMARK   64  A    between atoms: _195  and  _197
REMARK   65  A    between atoms: _197  and  _198
REMARK   66  A    between atoms: _197  and  _200
REMARK   67  A    between atoms: _200  and  _201
REMARK   68  A    between atoms: _204  and  _206
REMARK   69  A    between atoms: _206  and  _207
REMARK   70  A    between atoms: _206  and  _209
REMARK   71  A    between atoms: _209  and  _210
REMARK   72  A    between atoms: _211  and  ZN_415
REMARK   73  A    between atoms: _215  and  _217
REMARK   74  A    between atoms: _217  and  _218
REMARK   75  A    between atoms: _217  and  _220
REMARK   76  A    between atoms: _220  and  _221
REMARK   77  A    between atoms: _224  and  _226
REMARK   78  A    between atoms: _226  and  _227
REMARK   79  A    between atoms: _226  and  _229
REMARK   80  A    between atoms: _232  and  _234
REMARK   81  A    between atoms: _234  and  _235
REMARK   82  A    between atoms: _234  and  _237
REMARK   83  A    between atoms: _237  and  _238
REMARK   84  A    between atoms: _243  and  _245
REMARK   85  A    between atoms: _245  and  _246
REMARK   86  A    between atoms: _245  and  _248
REMARK   87  A    between atoms: _248  and  _249
REMARK   88  A    between atoms: _255  and  _257
REMARK   89  A    between atoms: _257  and  _258
REMARK   90  A    between atoms: _257  and  _260
REMARK   91  A    between atoms: _263  and  _265
REMARK   92  A    between atoms: _265  and  _266
REMARK   93  A    between atoms: _265  and  _268
REMARK   94  A    between atoms: _268  and  _269
REMARK   95  A    between atoms: _272  and  _274
REMARK   96  A    between atoms: _274  and  _275
REMARK   97  A    between atoms: _278  and  _280
REMARK   98  A    between atoms: _280  and  _281
REMARK   99  A    between atoms: _280  and  _283
REMARK  100  A    between atoms: _286  and  _288
REMARK  101  A    between atoms: _288  and  _289
REMARK  102  A    between atoms: _288  and  _291
REMARK  103  A    between atoms: _291  and  _292
REMARK  104  A    between atoms: _295  and  _297
REMARK  105  A    between atoms: _297  and  _298
REMARK  106  A    between atoms: _300  and  _302
REMARK  107  A    between atoms: _302  and  _303
REMARK  108  A    between atoms: _302  and  _305
REMARK  109  A    between atoms: _305  and  _306
REMARK  110  A    between atoms: _308  and  _310
REMARK  111  A    between atoms: _310  and  _311
REMARK  112  A    between atoms: _310  and  _313
REMARK  113  A    between atoms: _313  and  _314
REMARK  114  A    between atoms: _317  and  _319
REMARK  115  A    between atoms: _319  and  _320
REMARK  116  A    between atoms: _319  and  _322
REMARK  117  A    between atoms: _322  and  _323
REMARK  118  A    between atoms: _326  and  _328
REMARK  119  A    between atoms: _328  and  _329
REMARK  120  A    between atoms: _328  and  _331
REMARK  121  A    between atoms: _331  and  _332
REMARK  122  A    between atoms: _336  and  _337
REMARK  123  A    between atoms: _343  and  _344
REMARK  124  A    between atoms: _349  and  _351
REMARK  125  A    between atoms: _351  and  _352
REMARK  126  A    between atoms: _351  and  _354
REMARK  127  A    between atoms: _354  and  _355
REMARK  128  A    between atoms: _358  and  _360
REMARK  129  A    between atoms: _360  and  _361
REMARK  130  A    between atoms: _360  and  _363
REMARK  131  A    between atoms: _363  and  _364
REMARK  132  A    between atoms: _367  and  _369
REMARK  133  A    between atoms: _369  and  _370
REMARK  134  A    between atoms: _369  and  _372
REMARK  135  A    between atoms: _374  and  _376
REMARK  136  A    between atoms: _376  and  _377
REMARK  137  A    between atoms: _376  and  _379
REMARK  138  A    between atoms: _382  and  _384
REMARK  139  A    between atoms: _384  and  _385
REMARK  140  A    between atoms: _384  and  _387
REMARK  141  A    between atoms: _387  and  _388
REMARK  142  A    between atoms: _398  and  _400
REMARK  143  A    between atoms: _400  and  _401
REMARK  144  A    between atoms: _400  and  _403
REMARK  145  A    between atoms: _403  and  _404
REMARK  146  A    between atoms: _404  and  _405
REMARK  147  A    between atoms: _405  and  _406
REMARK                            x       y       z     vdW  Elec       q    Type
REMARK                         _______ _______ _______ _____ _____    ______ ____
ROOT
ATOM      1  C   CYS A   1      -6.034   7.716  24.063  0.00  0.00    +0.239 C 
ATOM      2  N   VAL A   2      -6.120   6.402  24.276  0.00  0.00    -0.298 N 
ATOM      3  H   VAL A   2      -5.272   5.898  24.607  0.00  0.00    +0.150 HD
ATOM      4  O   CYS A   1      -7.004   8.427  23.795  0.00  0.00    -0.274 OA
ENDROOT
BRANCH   1   5
ATOM      5  CA  CYS A   1      -4.650   8.334  24.185  0.00  0.00    +0.156 C 
BRANCH   5   6
ATOM      6  N   CYS A   1      -3.616   7.318  24.321  0.00  0.00    -0.237 NA
ATOM      7  H   CYS A   1      -3.563   6.562  23.609  0.00  0.00    +0.142 HD
ENDBRANCH   5   6
BRANCH   5   8
ATOM      8  CB  CYS A   1      -4.355   9.215  22.956  0.00  0.00    +0.095 C 
ATOM      9  SG  CYS A   1      -4.310   8.312  21.388  0.00  0.00    -0.080 S 
ENDBRANCH   5   8
ENDBRANCH   1   5
BRANCH   2  10
ATOM     10  CA  VAL A   2      -7.354   5.630  24.066  0.00  0.00    +0.137 C 
BRANCH  10  11
ATOM     11  CB  VAL A   2      -7.092   4.387  23.141  0.00  0.00    +0.026 C 
ATOM     12  CG2 VAL A   2      -8.403   3.749  22.726  0.00  0.00    +0.002 C 
ATOM     13  CG1 VAL A   2      -6.208   4.763  21.878  0.00  0.00    +0.002 C 
ENDBRANCH  10  11
BRANCH  10  14
ATOM     14  C   VAL A   2      -8.098   5.136  25.313  0.00  0.00    +0.227 C 
ATOM     15  O   VAL A   2      -7.545   4.393  26.175  0.00  0.00    -0.286 OA
ENDBRANCH  10  14
ENDBRANCH   2  10
TORSDOF 6
REMARK  Name = ../refined-set-2016/3kwa/3kwa_pocket.pdb
REMARK  147 active torsions:
REMARK  status: ('A' for Active; 'I' for Inactive)
REMARK    1  A    between atoms: _1  and  _3
REMARK    2  A    between atoms: _3  and  _4
REMARK    3  A    between atoms: _3  and  _6
REMARK    4  A    between atoms: _6  and  _7
REMARK    5  A    between atoms: _17  and  _19
REMARK    6  A    between atoms: _19  and  _20
REMARK    7  A    between atoms: _19  and  _22
REMARK    8  A    between atoms: _22  and  _23
REMARK    9  A    between atoms: _28  and  _29
REMARK   10  A    between atoms: _31  and  _33
REMARK   11  A    between atoms: _33  and  _34
REMARK   12  A    between atoms: _33  and  _36
REMARK   13  A    between atoms: _36  and  _37
REMARK   14  A    between atoms: _40  and  _41
REMARK   15  A    between atoms: _46  and  _48
REMARK   16  A    between atoms: _48  and  _49
REMARK   17  A    between atoms: _48  and  _51
REMARK   18  A    between atoms: _51  and  _52
REMARK   19  A    between atoms: _57  and  _59
REMARK   20  A    between atoms: _59  and  _60
REMARK   21  A    between atoms: _59  and  _62
REMARK   22  A    between atoms: _62  and  _63
REMARK   23  A    between atoms: _68  and  _70
REMARK   24  A    between atoms: _70  and  _71
REMARK   25  A    between atoms: _74  and  _76
REMARK   26  A    between atoms: _76  and  _77
REMARK   27  A    between atoms: _76  and  _79
REMARK   28  A    between atoms: _79  and  _80
REMARK   29  A    between atoms: _86  and  _88
REMARK   30  A    between atoms: _88  and  _89
REMARK   31  A    between atoms: _88  and  _91
REMARK   32  A    between atoms: _91  and  _92
REMARK   33  A    between atoms: _97  and  _99
REMARK   34  A    between atoms: _99  and  _100
REMARK   35  A    between atoms: _99  and  _102
REMARK   36  A    between atoms: _102  and  _103
REMARK   37  A    between atoms: _106  and  _108
REMARK   38  A    between atoms: _108  and  _109
REMARK   39  A    between atoms: _108  and  _111
REMARK   40  A    between atoms: _111  and  _112
REMARK   41  A    between atoms: _112  and  _113
REMARK   42  A    between atoms: _118  and  _120
REMARK   43  A    between atoms: _120  and  _121
REMARK   44  A    between atoms: _120  and  _123
REMARK   45  A    between atoms: _123  and  _124
REMARK   46  A    between atoms: _130  and  _132
REMARK   47  A    between atoms: _143  and  _146
REMARK   48  A    between atoms: _146  and  _147
REMARK   49  A    between atoms: _155  and  _156
REMARK   50  A    between atoms: _164  and  _166
REMARK   51  A    between atoms: _166  and  _167
REMARK   52  A    between atoms: _166  and  _169
REMARK   53  A    between atoms: _169  and  _170
REMARK   54  A    between atoms: _170  and  _171
REMARK   55  A    between atoms: _174  and  _176
REMARK   56  A    between atoms: _176  and  _177
REMARK   57  A    between atoms: _176  and  _179
REMARK   58  A    between atoms: _179  and  _180
REMARK   59  A    between atoms: _185  and  _187
REMARK   60  A    between atoms: _187  and  _188
REMARK   61  A    between atoms: _187  and  _190
REMARK   62  A    between atoms: _190  and  _191
REMARK   63  A    between atoms: _191  and  _192
REMARK   64  A    between atoms: _195  and  _197
REMARK   65  A    between atoms: _197  and  _198
REMARK   66  A    between atoms: _197  and  _200
REMARK   67  A    between atoms: _200  and  _201
REMARK   68  A    between atoms: _204  and  _206
REMARK   69  A    between atoms: _206  and  _207
REMARK   70  A    between atoms: _206  and  _209
REMARK   71  A    between atoms: _209  and  _210
REMARK   72  A    between atoms: _211  and  ZN_415
REMARK   73  A    between atoms: _215  and  _217
REMARK   74  A    between atoms: _217  and  _218
REMARK   75  A    between atoms: _217  and  _220
REMARK   76  A    between atoms: _220  and  _221
REMARK   77  A    between atoms: _224  and  _226
REMARK   78  A    between atoms: _226  and  _227
REMARK   79  A    between atoms: _226  and  _229
REMARK   80  A    between atoms: _232  and  _234
REMARK   81  A    between atoms: _234  and  _235
REMARK   82  A    between atoms: _234  and  _237
REMARK   83  A    between atoms: _237  and  _238
REMARK   84  A    between atoms: _243  and  _245
REMARK   85  A    between atoms: _245  and  _246
REMARK   86  A    between atoms: _245  and  _248
REMARK   87  A    between atoms: _248  and  _249
REMARK   88  A    between atoms: _255  and  _257
REMARK   89  A    between atoms: _257  and  _258
REMARK   90  A    between atoms: _257  and  _260
REMARK   91  A    between atoms: _263  and  _265
REMARK   92  A    between atoms: _265  and  _266
REMARK   93  A    between atoms: _265  and  _268
REMARK   94  A    between atoms: _268  and  _269
REMARK   95  A    between atoms: _272  and  _274
REMARK   96  A    between atoms: _274  and  _275
REMARK   97  A    between atoms: _278  and  _280
REMARK   98  A    between atoms: _280  and  _281
REMARK   99  A    between atoms: _280  and  _283
REMARK  100  A    between atoms: _286  and  _288
REMARK  101  A    between atoms: _288  and  _289
REMARK  102  A    between atoms: _288  and  _291
REMARK  103  A    between atoms: _291  and  _292
REMARK  104  A    between atoms: _295  and  _297
REMARK  105  A    between atoms: _297  and  _298
REMARK  106  A    between atoms: _300  and  _302
REMARK  107  A    between atoms: _302  and  _303
REMARK  108  A    between atoms: _302  and  _305
REMARK  109  A    between atoms: _305  and  _306
REMARK  110  A    between atoms: _308  and  _310
REMARK  111  A    between atoms: _310  and  _311
REMARK  112  A    between atoms: _310  and  _313
REMARK  113  A    between atoms: _313  and  _314
REMARK  114  A    between atoms: _317  and  _319
REMARK  115  A    between atoms: _319  and  _320
REMARK  116  A    between atoms: _319  and  _322
REMARK  117  A    between atoms: _322  and  _323
REMARK  118  A    between atoms: _326  and  _328
REMARK  119  A    between atoms: _328  and  _329
REMARK  120  A    between atoms: _328  and  _331
REMARK  121  A    between atoms: _331  and  _332
REMARK  122  A    between atoms: _336  and  _337
REMARK  123  A    between atoms: _343  and  _344
REMARK  124  A    between atoms: _349  and  _351
REMARK  125  A    between atoms: _351  and  _352
REMARK  126  A    between atoms: _351  and  _354
REMARK  127  A    between atoms: _354  and  _355
REMARK  128  A    between atoms: _358  and  _360
REMARK  129  A    between atoms: _360  and  _361
REMARK  130  A    between atoms: _360  and  _363
REMARK  131  A    between atoms: _363  and  _364
REMARK  132  A    between atoms: _367  and  _369
REMARK  133  A    between atoms: _369  and  _370
REMARK  134  A    between atoms: _369  and  _372
REMARK  135  A    between atoms: _374  and  _376
REMARK  136  A    between atoms: _376  and  _377
REMARK  137  A    between atoms: _376  and  _379
REMARK  138  A    between atoms: _382  and  _384
REMARK  139  A    between atoms: _384  and  _385
REMARK  140  A    between atoms: _384  and  _387
REMARK  141  A    between atoms: _387  and  _388
REMARK  142  A    between atoms: _398  and  _400
REMARK  143  A    between atoms: _400  and  _401
REMARK  144  A    between atoms: _400  and  _403
REMARK  145  A    between atoms: _403  and  _404
REMARK  146  A    between atoms: _404  and  _405
REMARK  147  A    between atoms: _405  and  _406
REMARK                            x       y       z     vdW  Elec       q    Type
REMARK                         _______ _______ _______ _____ _____    ______ ____
ROOT
ATOM      1  CG  TRP A   1      -8.818   0.155  24.143  0.00  0.00    -0.002 A 
ATOM      2  CD1 TRP A   1      -7.606   0.773  24.209  0.00  0.00    +0.068 A 
ATOM      3  NE1 TRP A   1      -6.927   0.617  23.017  0.00  0.00    -0.352 N 
ATOM      4  HE1 TRP A   1      -5.986   1.002  22.800  0.00  0.00    +0.166 HD
ATOM      5  CE2 TRP A   1      -7.702  -0.132  22.164  0.00  0.00    +0.056 A 
ATOM      6  CZ2 TRP A   1      -7.466  -0.537  20.856  0.00  0.00    +0.017 A 
ATOM      7  CH2 TRP A   1      -8.459  -1.249  20.223  0.00  0.00    +0.001 A 
ATOM      8  CZ3 TRP A   1      -9.684  -1.546  20.864  0.00  0.00    +0.000 A 
ATOM      9  CE3 TRP A   1      -9.912  -1.152  22.158  0.00  0.00    +0.001 A 
ATOM     10  CD2 TRP A   1      -8.912  -0.422  22.833  0.00  0.00    +0.013 A 
ENDROOT
BRANCH   1  11
ATOM     11  CB  TRP A   1      -9.855   0.110  25.188  0.00  0.00    +0.053 C 
BRANCH  11  12
ATOM     12  CA  TRP A   1     -10.902   1.217  25.033  0.00  0.00    +0.137 C 
BRANCH  12  13
ATOM     13  N   TRP A   1     -10.525   2.374  25.785  0.00  0.00    -0.239 NA
ATOM     14  H   TRP A   1     -10.000   2.261  26.675  0.00  0.00    +0.142 HD
ENDBRANCH  12  13
BRANCH  12  15
ATOM     15  C   TRP A   1     -12.231   0.729  25.533  0.00  0.00    +0.224 C 
ATOM     16  O   TRP A   1     -12.423   0.536  26.735  0.00  0.00    -0.287 OA
ENDBRANCH  12  15
ENDBRANCH  11  12
ENDBRANCH   1  11
TORSDOF 4
REMARK  Name = ../refined-set-2016/3kwa/3kwa_pocket.pdb
REMARK  147 active torsions:
REMARK  status: ('A' for Active; 'I' for Inactive)
REMARK    1  A    between atoms: _1  and  _3
REMARK    2  A    between atoms: _3  and  _4
REMARK    3  A    between atoms: _3  and  _6
REMARK    4  A    between atoms: _6  and  _7
REMARK    5  A    between atoms: _17  and  _19
REMARK    6  A    between atoms: _19  and  _20
REMARK    7  A    between atoms: _19  and  _22
REMARK    8  A    between atoms: _22  and  _23
REMARK    9  A    between atoms: _28  and  _29
REMARK   10  A    between atoms: _31  and  _33
REMARK   11  A    between atoms: _33  and  _34
REMARK   12  A    between atoms: _33  and  _36
REMARK   13  A    between atoms: _36  and  _37
REMARK   14  A    between atoms: _40  and  _41
REMARK   15  A    between atoms: _46  and  _48
REMARK   16  A    between atoms: _48  and  _49
REMARK   17  A    between atoms: _48  and  _51
REMARK   18  A    between atoms: _51  and  _52
REMARK   19  A    between atoms: _57  and  _59
REMARK   20  A    between atoms: _59  and  _60
REMARK   21  A    between atoms: _59  and  _62
REMARK   22  A    between atoms: _62  and  _63
REMARK   23  A    between atoms: _68  and  _70
REMARK   24  A    between atoms: _70  and  _71
REMARK   25  A    between atoms: _74  and  _76
REMARK   26  A    between atoms: _76  and  _77
REMARK   27  A    between atoms: _76  and  _79
REMARK   28  A    between atoms: _79  and  _80
REMARK   29  A    between atoms: _86  and  _88
REMARK   30  A    between atoms: _88  and  _89
REMARK   31  A    between atoms: _88  and  _91
REMARK   32  A    between atoms: _91  and  _92
REMARK   33  A    between atoms: _97  and  _99
REMARK   34  A    between atoms: _99  and  _100
REMARK   35  A    between atoms: _99  and  _102
REMARK   36  A    between atoms: _102  and  _103
REMARK   37  A    between atoms: _106  and  _108
REMARK   38  A    between atoms: _108  and  _109
REMARK   39  A    between atoms: _108  and  _111
REMARK   40  A    between atoms: _111  and  _112
REMARK   41  A    between atoms: _112  and  _113
REMARK   42  A    between atoms: _118  and  _120
REMARK   43  A    between atoms: _120  and  _121
REMARK   44  A    between atoms: _120  and  _123
REMARK   45  A    between atoms: _123  and  _124
REMARK   46  A    between atoms: _130  and  _132
REMARK   47  A    between atoms: _143  and  _146
REMARK   48  A    between atoms: _146  and  _147
REMARK   49  A    between atoms: _155  and  _156
REMARK   50  A    between atoms: _164  and  _166
REMARK   51  A    between atoms: _166  and  _167
REMARK   52  A    between atoms: _166  and  _169
REMARK   53  A    between atoms: _169  and  _170
REMARK   54  A    between atoms: _170  and  _171
REMARK   55  A    between atoms: _174  and  _176
REMARK   56  A    between atoms: _176  and  _177
REMARK   57  A    between atoms: _176  and  _179
REMARK   58  A    between atoms: _179  and  _180
REMARK   59  A    between atoms: _185  and  _187
REMARK   60  A    between atoms: _187  and  _188
REMARK   61  A    between atoms: _187  and  _190
REMARK   62  A    between atoms: _190  and  _191
REMARK   63  A    between atoms: _191  and  _192
REMARK   64  A    between atoms: _195  and  _197
REMARK   65  A    between atoms: _197  and  _198
REMARK   66  A    between atoms: _197  and  _200
REMARK   67  A    between atoms: _200  and  _201
REMARK   68  A    between atoms: _204  and  _206
REMARK   69  A    between atoms: _206  and  _207
REMARK   70  A    between atoms: _206  and  _209
REMARK   71  A    between atoms: _209  and  _210
REMARK   72  A    between atoms: _211  and  ZN_415
REMARK   73  A    between atoms: _215  and  _217
REMARK   74  A    between atoms: _217  and  _218
REMARK   75  A    between atoms: _217  and  _220
REMARK   76  A    between atoms: _220  and  _221
REMARK   77  A    between atoms: _224  and  _226
REMARK   78  A    between atoms: _226  and  _227
REMARK   79  A    between atoms: _226  and  _229
REMARK   80  A    between atoms: _232  and  _234
REMARK   81  A    between atoms: _234  and  _235
REMARK   82  A    between atoms: _234  and  _237
REMARK   83  A    between atoms: _237  and  _238
REMARK   84  A    between atoms: _243  and  _245
REMARK   85  A    between atoms: _245  and  _246
REMARK   86  A    between atoms: _245  and  _248
REMARK   87  A    between atoms: _248  and  _249
REMARK   88  A    between atoms: _255  and  _257
REMARK   89  A    between atoms: _257  and  _258
REMARK   90  A    between atoms: _257  and  _260
REMARK   91  A    between atoms: _263  and  _265
REMARK   92  A    between atoms: _265  and  _266
REMARK   93  A    between atoms: _265  and  _268
REMARK   94  A    between atoms: _268  and  _269
REMARK   95  A    between atoms: _272  and  _274
REMARK   96  A    between atoms: _274  and  _275
REMARK   97  A    between atoms: _278  and  _280
REMARK   98  A    between atoms: _280  and  _281
REMARK   99  A    between atoms: _280  and  _283
REMARK  100  A    between atoms: _286  and  _288
REMARK  101  A    between atoms: _288  and  _289
REMARK  102  A    between atoms: _288  and  _291
REMARK  103  A    between atoms: _291  and  _292
REMARK  104  A    between atoms: _295  and  _297
REMARK  105  A    between atoms: _297  and  _298
REMARK  106  A    between atoms: _300  and  _302
REMARK  107  A    between atoms: _302  and  _303
REMARK  108  A    between atoms: _302  and  _305
REMARK  109  A    between atoms: _305  and  _306
REMARK  110  A    between atoms: _308  and  _310
REMARK  111  A    between atoms: _310  and  _311
REMARK  112  A    between atoms: _310  and  _313
REMARK  113  A    between atoms: _313  and  _314
REMARK  114  A    between atoms: _317  and  _319
REMARK  115  A    between atoms: _319  and  _320
REMARK  116  A    between atoms: _319  and  _322
REMARK  117  A    between atoms: _322  and  _323
REMARK  118  A    between atoms: _326  and  _328
REMARK  119  A    between atoms: _328  and  _329
REMARK  120  A    between atoms: _328  and  _331
REMARK  121  A    between atoms: _331  and  _332
REMARK  122  A    between atoms: _336  and  _337
REMARK  123  A    between atoms: _343  and  _344
REMARK  124  A    between atoms: _349  and  _351
REMARK  125  A    between atoms: _351  and  _352
REMARK  126  A    between atoms: _351  and  _354
REMARK  127  A    between atoms: _354  and  _355
REMARK  128  A    between atoms: _358  and  _360
REMARK  129  A    between atoms: _360  and  _361
REMARK  130  A    between atoms: _360  and  _363
REMARK  131  A    between atoms: _363  and  _364
REMARK  132  A    between atoms: _367  and  _369
REMARK  133  A    between atoms: _369  and  _370
REMARK  134  A    between atoms: _369  and  _372
REMARK  135  A    between atoms: _374  and  _376
REMARK  136  A    between atoms: _376  and  _377
REMARK  137  A    between atoms: _376  and  _379
REMARK  138  A    between atoms: _382  and  _384
REMARK  139  A    between atoms: _384  and  _385
REMARK  140  A    between atoms: _384  and  _387
REMARK  141  A    between atoms: _387  and  _388
REMARK  142  A    between atoms: _398  and  _400
REMARK  143  A    between atoms: _400  and  _401
REMARK  144  A    between atoms: _400  and  _403
REMARK  145  A    between atoms: _403  and  _404
REMARK  146  A    between atoms: _404  and  _405
REMARK  147  A    between atoms: _405  and  _406
REMARK                            x       y       z     vdW  Elec       q    Type
REMARK                         _______ _______ _______ _____ _____    ______ ____
ROOT
ATOM      1  NE  ARG A   1       2.177  -3.664  21.135  0.00  0.00    -0.265 N 
ATOM      2  CZ  ARG A   1       2.323  -2.606  21.947  0.00  0.00    +0.342 C 
ATOM      3  NH2 ARG A   1       3.548  -2.294  22.413  0.00  0.00    -0.292 N 
ATOM      4 HH21 ARG A   1       3.672  -1.476  23.043  0.00  0.00    +0.255 HD
ATOM      5 HH22 ARG A   1       4.370  -2.871  22.143  0.00  0.00    +0.255 HD
ATOM      6  NH1 ARG A   1       1.274  -1.857  22.313  0.00  0.00    -0.292 N 
ATOM      7 HH11 ARG A   1       1.412  -1.042  22.943  0.00  0.00    +0.255 HD
ATOM      8 HH12 ARG A   1       0.322  -2.091  21.967  0.00  0.00    +0.255 HD
ATOM      9  HE  ARG A   1       3.034  -4.208  20.910  0.00  0.00    +0.259 HD
ENDROOT
BRANCH   1  10
ATOM     10  CD  ARG A   1       0.907  -4.130  20.528  0.00  0.00    +0.174 C 
BRANCH  10  11
ATOM     11  CG  ARG A   1       1.085  -5.460  19.749  0.00  0.00    +0.045 C 
BRANCH  11  12
ATOM     12  CB  ARG A   1      -0.123  -5.721  18.790  0.00  0.00    +0.029 C 
BRANCH  12  13
ATOM     13  CA  ARG A   1      -0.276  -7.174  18.284  0.00  0.00    +0.133 C 
BRANCH  13  14
ATOM     14  N   ARG A   1      -1.153  -7.234  17.117  0.00  0.00    -0.239 NA
ATOM     15  H   ARG A   1      -1.874  -6.494  17.000  0.00  0.00    +0.142 HD
ENDBRANCH  13  14
BRANCH  13  16
ATOM     16  C   ARG A   1      -0.811  -8.096  19.412  0.00  0.00    +0.224 C 
ATOM     17  O   ARG A   1      -2.031  -8.154  19.701  0.00  0.00    -0.287 OA
ENDBRANCH  13  16
ENDBRANCH  12  13
ENDBRANCH  11  12
ENDBRANCH  10  11
ENDBRANCH   1  10
TORSDOF 6
REMARK  Name = ../refined-set-2016/3kwa/3kwa_pocket.pdb
REMARK  147 active torsions:
REMARK  status: ('A' for Active; 'I' for Inactive)
REMARK    1  A    between atoms: _1  and  _3
REMARK    2  A    between atoms: _3  and  _4
REMARK    3  A    between atoms: _3  and  _6
REMARK    4  A    between atoms: _6  and  _7
REMARK    5  A    between atoms: _17  and  _19
REMARK    6  A    between atoms: _19  and  _20
REMARK    7  A    between atoms: _19  and  _22
REMARK    8  A    between atoms: _22  and  _23
REMARK    9  A    between atoms: _28  and  _29
REMARK   10  A    between atoms: _31  and  _33
REMARK   11  A    between atoms: _33  and  _34
REMARK   12  A    between atoms: _33  and  _36
REMARK   13  A    between atoms: _36  and  _37
REMARK   14  A    between atoms: _40  and  _41
REMARK   15  A    between atoms: _46  and  _48
REMARK   16  A    between atoms: _48  and  _49
REMARK   17  A    between atoms: _48  and  _51
REMARK   18  A    between atoms: _51  and  _52
REMARK   19  A    between atoms: _57  and  _59
REMARK   20  A    between atoms: _59  and  _60
REMARK   21  A    between atoms: _59  and  _62
REMARK   22  A    between atoms: _62  and  _63
REMARK   23  A    between atoms: _68  and  _70
REMARK   24  A    between atoms: _70  and  _71
REMARK   25  A    between atoms: _74  and  _76
REMARK   26  A    between atoms: _76  and  _77
REMARK   27  A    between atoms: _76  and  _79
REMARK   28  A    between atoms: _79  and  _80
REMARK   29  A    between atoms: _86  and  _88
REMARK   30  A    between atoms: _88  and  _89
REMARK   31  A    between atoms: _88  and  _91
REMARK   32  A    between atoms: _91  and  _92
REMARK   33  A    between atoms: _97  and  _99
REMARK   34  A    between atoms: _99  and  _100
REMARK   35  A    between atoms: _99  and  _102
REMARK   36  A    between atoms: _102  and  _103
REMARK   37  A    between atoms: _106  and  _108
REMARK   38  A    between atoms: _108  and  _109
REMARK   39  A    between atoms: _108  and  _111
REMARK   40  A    between atoms: _111  and  _112
REMARK   41  A    between atoms: _112  and  _113
REMARK   42  A    between atoms: _118  and  _120
REMARK   43  A    between atoms: _120  and  _121
REMARK   44  A    between atoms: _120  and  _123
REMARK   45  A    between atoms: _123  and  _124
REMARK   46  A    between atoms: _130  and  _132
REMARK   47  A    between atoms: _143  and  _146
REMARK   48  A    between atoms: _146  and  _147
REMARK   49  A    between atoms: _155  and  _156
REMARK   50  A    between atoms: _164  and  _166
REMARK   51  A    between atoms: _166  and  _167
REMARK   52  A    between atoms: _166  and  _169
REMARK   53  A    between atoms: _169  and  _170
REMARK   54  A    between atoms: _170  and  _171
REMARK   55  A    between atoms: _174  and  _176
REMARK   56  A    between atoms: _176  and  _177
REMARK   57  A    between atoms: _176  and  _179
REMARK   58  A    between atoms: _179  and  _180
REMARK   59  A    between atoms: _185  and  _187
REMARK   60  A    between atoms: _187  and  _188
REMARK   61  A    between atoms: _187  and  _190
REMARK   62  A    between atoms: _190  and  _191
REMARK   63  A    between atoms: _191  and  _192
REMARK   64  A    between atoms: _195  and  _197
REMARK   65  A    between atoms: _197  and  _198
REMARK   66  A    between atoms: _197  and  _200
REMARK   67  A    between atoms: _200  and  _201
REMARK   68  A    between atoms: _204  and  _206
REMARK   69  A    between atoms: _206  and  _207
REMARK   70  A    between atoms: _206  and  _209
REMARK   71  A    between atoms: _209  and  _210
REMARK   72  A    between atoms: _211  and  ZN_415
REMARK   73  A    between atoms: _215  and  _217
REMARK   74  A    between atoms: _217  and  _218
REMARK   75  A    between atoms: _217  and  _220
REMARK   76  A    between atoms: _220  and  _221
REMARK   77  A    between atoms: _224  and  _226
REMARK   78  A    between atoms: _226  and  _227
REMARK   79  A    between atoms: _226  and  _229
REMARK   80  A    between atoms: _232  and  _234
REMARK   81  A    between atoms: _234  and  _235
REMARK   82  A    between atoms: _234  and  _237
REMARK   83  A    between atoms: _237  and  _238
REMARK   84  A    between atoms: _243  and  _245
REMARK   85  A    between atoms: _245  and  _246
REMARK   86  A    between atoms: _245  and  _248
REMARK   87  A    between atoms: _248  and  _249
REMARK   88  A    between atoms: _255  and  _257
REMARK   89  A    between atoms: _257  and  _258
REMARK   90  A    between atoms: _257  and  _260
REMARK   91  A    between atoms: _263  and  _265
REMARK   92  A    between atoms: _265  and  _266
REMARK   93  A    between atoms: _265  and  _268
REMARK   94  A    between atoms: _268  and  _269
REMARK   95  A    between atoms: _272  and  _274
REMARK   96  A    between atoms: _274  and  _275
REMARK   97  A    between atoms: _278  and  _280
REMARK   98  A    between atoms: _280  and  _281
REMARK   99  A    between atoms: _280  and  _283
REMARK  100  A    between atoms: _286  and  _288
REMARK  101  A    between atoms: _288  and  _289
REMARK  102  A    between atoms: _288  and  _291
REMARK  103  A    between atoms: _291  and  _292
REMARK  104  A    between atoms: _295  and  _297
REMARK  105  A    between atoms: _297  and  _298
REMARK  106  A    between atoms: _300  and  _302
REMARK  107  A    between atoms: _302  and  _303
REMARK  108  A    between atoms: _302  and  _305
REMARK  109  A    between atoms: _305  and  _306
REMARK  110  A    between atoms: _308  and  _310
REMARK  111  A    between atoms: _310  and  _311
REMARK  112  A    between atoms: _310  and  _313
REMARK  113  A    between atoms: _313  and  _314
REMARK  114  A    between atoms: _317  and  _319
REMARK  115  A    between atoms: _319  and  _320
REMARK  116  A    between atoms: _319  and  _322
REMARK  117  A    between atoms: _322  and  _323
REMARK  118  A    between atoms: _326  and  _328
REMARK  119  A    between atoms: _328  and  _329
REMARK  120  A    between atoms: _328  and  _331
REMARK  121  A    between atoms: _331  and  _332
REMARK  122  A    between atoms: _336  and  _337
REMARK  123  A    between atoms: _343  and  _344
REMARK  124  A    between atoms: _349  and  _351
REMARK  125  A    between atoms: _351  and  _352
REMARK  126  A    between atoms: _351  and  _354
REMARK  127  A    between atoms: _354  and  _355
REMARK  128  A    between atoms: _358  and  _360
REMARK  129  A    between atoms: _360  and  _361
REMARK  130  A    between atoms: _360  and  _363
REMARK  131  A    between atoms: _363  and  _364
REMARK  132  A    between atoms: _367  and  _369
REMARK  133  A    between atoms: _369  and  _370
REMARK  134  A    between atoms: _369  and  _372
REMARK  135  A    between atoms: _374  and  _376
REMARK  136  A    between atoms: _376  and  _377
REMARK  137  A    between atoms: _376  and  _379
REMARK  138  A    between atoms: _382  and  _384
REMARK  139  A    between atoms: _384  and  _385
REMARK  140  A    between atoms: _384  and  _387
REMARK  141  A    between atoms: _387  and  _388
REMARK  142  A    between atoms: _398  and  _400
REMARK  143  A    between atoms: _400  and  _401
REMARK  144  A    between atoms: _400  and  _403
REMARK  145  A    between atoms: _403  and  _404
REMARK  146  A    between atoms: _404  and  _405
REMARK  147  A    between atoms: _405  and  _406
REMARK                            x       y       z     vdW  Elec       q    Type
REMARK                         _______ _______ _______ _____ _____    ______ ____
ROOT
ATOM      1  O   HOH     1      -1.466  -3.960  15.577  0.00  0.00    +0.000 OA
ENDROOT
TORSDOF 0
REMARK  Name = ../refined-set-2016/3kwa/3kwa_pocket.pdb
REMARK  147 active torsions:
REMARK  status: ('A' for Active; 'I' for Inactive)
REMARK    1  A    between atoms: _1  and  _3
REMARK    2  A    between atoms: _3  and  _4
REMARK    3  A    between atoms: _3  and  _6
REMARK    4  A    between atoms: _6  and  _7
REMARK    5  A    between atoms: _17  and  _19
REMARK    6  A    between atoms: _19  and  _20
REMARK    7  A    between atoms: _19  and  _22
REMARK    8  A    between atoms: _22  and  _23
REMARK    9  A    between atoms: _28  and  _29
REMARK   10  A    between atoms: _31  and  _33
REMARK   11  A    between atoms: _33  and  _34
REMARK   12  A    between atoms: _33  and  _36
REMARK   13  A    between atoms: _36  and  _37
REMARK   14  A    between atoms: _40  and  _41
REMARK   15  A    between atoms: _46  and  _48
REMARK   16  A    between atoms: _48  and  _49
REMARK   17  A    between atoms: _48  and  _51
REMARK   18  A    between atoms: _51  and  _52
REMARK   19  A    between atoms: _57  and  _59
REMARK   20  A    between atoms: _59  and  _60
REMARK   21  A    between atoms: _59  and  _62
REMARK   22  A    between atoms: _62  and  _63
REMARK   23  A    between atoms: _68  and  _70
REMARK   24  A    between atoms: _70  and  _71
REMARK   25  A    between atoms: _74  and  _76
REMARK   26  A    between atoms: _76  and  _77
REMARK   27  A    between atoms: _76  and  _79
REMARK   28  A    between atoms: _79  and  _80
REMARK   29  A    between atoms: _86  and  _88
REMARK   30  A    between atoms: _88  and  _89
REMARK   31  A    between atoms: _88  and  _91
REMARK   32  A    between atoms: _91  and  _92
REMARK   33  A    between atoms: _97  and  _99
REMARK   34  A    between atoms: _99  and  _100
REMARK   35  A    between atoms: _99  and  _102
REMARK   36  A    between atoms: _102  and  _103
REMARK   37  A    between atoms: _106  and  _108
REMARK   38  A    between atoms: _108  and  _109
REMARK   39  A    between atoms: _108  and  _111
REMARK   40  A    between atoms: _111  and  _112
REMARK   41  A    between atoms: _112  and  _113
REMARK   42  A    between atoms: _118  and  _120
REMARK   43  A    between atoms: _120  and  _121
REMARK   44  A    between atoms: _120  and  _123
REMARK   45  A    between atoms: _123  and  _124
REMARK   46  A    between atoms: _130  and  _132
REMARK   47  A    between atoms: _143  and  _146
REMARK   48  A    between atoms: _146  and  _147
REMARK   49  A    between atoms: _155  and  _156
REMARK   50  A    between atoms: _164  and  _166
REMARK   51  A    between atoms: _166  and  _167
REMARK   52  A    between atoms: _166  and  _169
REMARK   53  A    between atoms: _169  and  _170
REMARK   54  A    between atoms: _170  and  _171
REMARK   55  A    between atoms: _174  and  _176
REMARK   56  A    between atoms: _176  and  _177
REMARK   57  A    between atoms: _176  and  _179
REMARK   58  A    between atoms: _179  and  _180
REMARK   59  A    between atoms: _185  and  _187
REMARK   60  A    between atoms: _187  and  _188
REMARK   61  A    between atoms: _187  and  _190
REMARK   62  A    between atoms: _190  and  _191
REMARK   63  A    between atoms: _191  and  _192
REMARK   64  A    between atoms: _195  and  _197
REMARK   65  A    between atoms: _197  and  _198
REMARK   66  A    between atoms: _197  and  _200
REMARK   67  A    between atoms: _200  and  _201
REMARK   68  A    between atoms: _204  and  _206
REMARK   69  A    between atoms: _206  and  _207
REMARK   70  A    between atoms: _206  and  _209
REMARK   71  A    between atoms: _209  and  _210
REMARK   72  A    between atoms: _211  and  ZN_415
REMARK   73  A    between atoms: _215  and  _217
REMARK   74  A    between atoms: _217  and  _218
REMARK   75  A    between atoms: _217  and  _220
REMARK   76  A    between atoms: _220  and  _221
REMARK   77  A    between atoms: _224  and  _226
REMARK   78  A    between atoms: _226  and  _227
REMARK   79  A    between atoms: _226  and  _229
REMARK   80  A    between atoms: _232  and  _234
REMARK   81  A    between atoms: _234  and  _235
REMARK   82  A    between atoms: _234  and  _237
REMARK   83  A    between atoms: _237  and  _238
REMARK   84  A    between atoms: _243  and  _245
REMARK   85  A    between atoms: _245  and  _246
REMARK   86  A    between atoms: _245  and  _248
REMARK   87  A    between atoms: _248  and  _249
REMARK   88  A    between atoms: _255  and  _257
REMARK   89  A    between atoms: _257  and  _258
REMARK   90  A    between atoms: _257  and  _260
REMARK   91  A    between atoms: _263  and  _265
REMARK   92  A    between atoms: _265  and  _266
REMARK   93  A    between atoms: _265  and  _268
REMARK   94  A    between atoms: _268  and  _269
REMARK   95  A    between atoms: _272  and  _274
REMARK   96  A    between atoms: _274  and  _275
REMARK   97  A    between atoms: _278  and  _280
REMARK   98  A    between atoms: _280  and  _281
REMARK   99  A    between atoms: _280  and  _283
REMARK  100  A    between atoms: _286  and  _288
REMARK  101  A    between atoms: _288  and  _289
REMARK  102  A    between atoms: _288  and  _291
REMARK  103  A    between atoms: _291  and  _292
REMARK  104  A    between atoms: _295  and  _297
REMARK  105  A    between atoms: _297  and  _298
REMARK  106  A    between atoms: _300  and  _302
REMARK  107  A    between atoms: _302  and  _303
REMARK  108  A    between atoms: _302  and  _305
REMARK  109  A    between atoms: _305  and  _306
REMARK  110  A    between atoms: _308  and  _310
REMARK  111  A    between atoms: _310  and  _311
REMARK  112  A    between atoms: _310  and  _313
REMARK  113  A    between atoms: _313  and  _314
REMARK  114  A    between atoms: _317  and  _319
REMARK  115  A    between atoms: _319  and  _320
REMARK  116  A    between atoms: _319  and  _322
REMARK  117  A    between atoms: _322  and  _323
REMARK  118  A    between atoms: _326  and  _328
REMARK  119  A    between atoms: _328  and  _329
REMARK  120  A    between atoms: _328  and  _331
REMARK  121  A    between atoms: _331  and  _332
REMARK  122  A    between atoms: _336  and  _337
REMARK  123  A    between atoms: _343  and  _344
REMARK  124  A    between atoms: _349  and  _351
REMARK  125  A    between atoms: _351  and  _352
REMARK  126  A    between atoms: _351  and  _354
REMARK  127  A    between atoms: _354  and  _355
REMARK  128  A    between atoms: _358  and  _360
REMARK  129  A    between atoms: _360  and  _361
REMARK  130  A    between atoms: _360  and  _363
REMARK  131  A    between atoms: _363  and  _364
REMARK  132  A    between atoms: _367  and  _369
REMARK  133  A    between atoms: _369  and  _370
REMARK  134  A    between atoms: _369  and  _372
REMARK  135  A    between atoms: _374  and  _376
REMARK  136  A    between atoms: _376  and  _377
REMARK  137  A    between atoms: _376  and  _379
REMARK  138  A    between atoms: _382  and  _384
REMARK  139  A    between atoms: _384  and  _385
REMARK  140  A    between atoms: _384  and  _387
REMARK  141  A    between atoms: _387  and  _388
REMARK  142  A    between atoms: _398  and  _400
REMARK  143  A    between atoms: _400  and  _401
REMARK  144  A    between atoms: _400  and  _403
REMARK  145  A    between atoms: _403  and  _404
REMARK  146  A    between atoms: _404  and  _405
REMARK  147  A    between atoms: _405  and  _406
REMARK                            x       y       z     vdW  Elec       q    Type
REMARK                         _______ _______ _______ _____ _____    ______ ____
ROOT
ATOM      1  O   HOH     1      -2.476  -3.160  11.463  0.00  0.00    +0.000 OA
ENDROOT
TORSDOF 0
REMARK  Name = ../refined-set-2016/3kwa/3kwa_pocket.pdb
REMARK  147 active torsions:
REMARK  status: ('A' for Active; 'I' for Inactive)
REMARK    1  A    between atoms: _1  and  _3
REMARK    2  A    between atoms: _3  and  _4
REMARK    3  A    between atoms: _3  and  _6
REMARK    4  A    between atoms: _6  and  _7
REMARK    5  A    between atoms: _17  and  _19
REMARK    6  A    between atoms: _19  and  _20
REMARK    7  A    between atoms: _19  and  _22
REMARK    8  A    between atoms: _22  and  _23
REMARK    9  A    between atoms: _28  and  _29
REMARK   10  A    between atoms: _31  and  _33
REMARK   11  A    between atoms: _33  and  _34
REMARK   12  A    between atoms: _33  and  _36
REMARK   13  A    between atoms: _36  and  _37
REMARK   14  A    between atoms: _40  and  _41
REMARK   15  A    between atoms: _46  and  _48
REMARK   16  A    between atoms: _48  and  _49
REMARK   17  A    between atoms: _48  and  _51
REMARK   18  A    between atoms: _51  and  _52
REMARK   19  A    between atoms: _57  and  _59
REMARK   20  A    between atoms: _59  and  _60
REMARK   21  A    between atoms: _59  and  _62
REMARK   22  A    between atoms: _62  and  _63
REMARK   23  A    between atoms: _68  and  _70
REMARK   24  A    between atoms: _70  and  _71
REMARK   25  A    between atoms: _74  and  _76
REMARK   26  A    between atoms: _76  and  _77
REMARK   27  A    between atoms: _76  and  _79
REMARK   28  A    between atoms: _79  and  _80
REMARK   29  A    between atoms: _86  and  _88
REMARK   30  A    between atoms: _88  and  _89
REMARK   31  A    between atoms: _88  and  _91
REMARK   32  A    between atoms: _91  and  _92
REMARK   33  A    between atoms: _97  and  _99
REMARK   34  A    between atoms: _99  and  _100
REMARK   35  A    between atoms: _99  and  _102
REMARK   36  A    between atoms: _102  and  _103
REMARK   37  A    between atoms: _106  and  _108
REMARK   38  A    between atoms: _108  and  _109
REMARK   39  A    between atoms: _108  and  _111
REMARK   40  A    between atoms: _111  and  _112
REMARK   41  A    between atoms: _112  and  _113
REMARK   42  A    between atoms: _118  and  _120
REMARK   43  A    between atoms: _120  and  _121
REMARK   44  A    between atoms: _120  and  _123
REMARK   45  A    between atoms: _123  and  _124
REMARK   46  A    between atoms: _130  and  _132
REMARK   47  A    between atoms: _143  and  _146
REMARK   48  A    between atoms: _146  and  _147
REMARK   49  A    between atoms: _155  and  _156
REMARK   50  A    between atoms: _164  and  _166
REMARK   51  A    between atoms: _166  and  _167
REMARK   52  A    between atoms: _166  and  _169
REMARK   53  A    between atoms: _169  and  _170
REMARK   54  A    between atoms: _170  and  _171
REMARK   55  A    between atoms: _174  and  _176
REMARK   56  A    between atoms: _176  and  _177
REMARK   57  A    between atoms: _176  and  _179
REMARK   58  A    between atoms: _179  and  _180
REMARK   59  A    between atoms: _185  and  _187
REMARK   60  A    between atoms: _187  and  _188
REMARK   61  A    between atoms: _187  and  _190
REMARK   62  A    between atoms: _190  and  _191
REMARK   63  A    between atoms: _191  and  _192
REMARK   64  A    between atoms: _195  and  _197
REMARK   65  A    between atoms: _197  and  _198
REMARK   66  A    between atoms: _197  and  _200
REMARK   67  A    between atoms: _200  and  _201
REMARK   68  A    between atoms: _204  and  _206
REMARK   69  A    between atoms: _206  and  _207
REMARK   70  A    between atoms: _206  and  _209
REMARK   71  A    between atoms: _209  and  _210
REMARK   72  A    between atoms: _211  and  ZN_415
REMARK   73  A    between atoms: _215  and  _217
REMARK   74  A    between atoms: _217  and  _218
REMARK   75  A    between atoms: _217  and  _220
REMARK   76  A    between atoms: _220  and  _221
REMARK   77  A    between atoms: _224  and  _226
REMARK   78  A    between atoms: _226  and  _227
REMARK   79  A    between atoms: _226  and  _229
REMARK   80  A    between atoms: _232  and  _234
REMARK   81  A    between atoms: _234  and  _235
REMARK   82  A    between atoms: _234  and  _237
REMARK   83  A    between atoms: _237  and  _238
REMARK   84  A    between atoms: _243  and  _245
REMARK   85  A    between atoms: _245  and  _246
REMARK   86  A    between atoms: _245  and  _248
REMARK   87  A    between atoms: _248  and  _249
REMARK   88  A    between atoms: _255  and  _257
REMARK   89  A    between atoms: _257  and  _258
REMARK   90  A    between atoms: _257  and  _260
REMARK   91  A    between atoms: _263  and  _265
REMARK   92  A    between atoms: _265  and  _266
REMARK   93  A    between atoms: _265  and  _268
REMARK   94  A    between atoms: _268  and  _269
REMARK   95  A    between atoms: _272  and  _274
REMARK   96  A    between atoms: _274  and  _275
REMARK   97  A    between atoms: _278  and  _280
REMARK   98  A    between atoms: _280  and  _281
REMARK   99  A    between atoms: _280  and  _283
REMARK  100  A    between atoms: _286  and  _288
REMARK  101  A    between atoms: _288  and  _289
REMARK  102  A    between atoms: _288  and  _291
REMARK  103  A    between atoms: _291  and  _292
REMARK  104  A    between atoms: _295  and  _297
REMARK  105  A    between atoms: _297  and  _298
REMARK  106  A    between atoms: _300  and  _302
REMARK  107  A    between atoms: _302  and  _303
REMARK  108  A    between atoms: _302  and  _305
REMARK  109  A    between atoms: _305  and  _306
REMARK  110  A    between atoms: _308  and  _310
REMARK  111  A    between atoms: _310  and  _311
REMARK  112  A    between atoms: _310  and  _313
REMARK  113  A    between atoms: _313  and  _314
REMARK  114  A    between atoms: _317  and  _319
REMARK  115  A    between atoms: _319  and  _320
REMARK  116  A    between atoms: _319  and  _322
REMARK  117  A    between atoms: _322  and  _323
REMARK  118  A    between atoms: _326  and  _328
REMARK  119  A    between atoms: _328  and  _329
REMARK  120  A    between atoms: _328  and  _331
REMARK  121  A    between atoms: _331  and  _332
REMARK  122  A    between atoms: _336  and  _337
REMARK  123  A    between atoms: _343  and  _344
REMARK  124  A    between atoms: _349  and  _351
REMARK  125  A    between atoms: _351  and  _352
REMARK  126  A    between atoms: _351  and  _354
REMARK  127  A    between atoms: _354  and  _355
REMARK  128  A    between atoms: _358  and  _360
REMARK  129  A    between atoms: _360  and  _361
REMARK  130  A    between atoms: _360  and  _363
REMARK  131  A    between atoms: _363  and  _364
REMARK  132  A    between atoms: _367  and  _369
REMARK  133  A    between atoms: _369  and  _370
REMARK  134  A    between atoms: _369  and  _372
REMARK  135  A    between atoms: _374  and  _376
REMARK  136  A    between atoms: _376  and  _377
REMARK  137  A    between atoms: _376  and  _379
REMARK  138  A    between atoms: _382  and  _384
REMARK  139  A    between atoms: _384  and  _385
REMARK  140  A    between atoms: _384  and  _387
REMARK  141  A    between atoms: _387  and  _388
REMARK  142  A    between atoms: _398  and  _400
REMARK  143  A    between atoms: _400  and  _401
REMARK  144  A    between atoms: _400  and  _403
REMARK  145  A    between atoms: _403  and  _404
REMARK  146  A    between atoms: _404  and  _405
REMARK  147  A    between atoms: _405  and  _406
REMARK                            x       y       z     vdW  Elec       q    Type
REMARK                         _______ _______ _______ _____ _____    ______ ____
ROOT
ATOM      1  O   HOH     1      -4.195  -0.939  12.091  0.00  0.00    +0.000 OA
ENDROOT
TORSDOF 0
REMARK  Name = ../refined-set-2016/3kwa/3kwa_pocket.pdb
REMARK  147 active torsions:
REMARK  status: ('A' for Active; 'I' for Inactive)
REMARK    1  A    between atoms: _1  and  _3
REMARK    2  A    between atoms: _3  and  _4
REMARK    3  A    between atoms: _3  and  _6
REMARK    4  A    between atoms: _6  and  _7
REMARK    5  A    between atoms: _17  and  _19
REMARK    6  A    between atoms: _19  and  _20
REMARK    7  A    between atoms: _19  and  _22
REMARK    8  A    between atoms: _22  and  _23
REMARK    9  A    between atoms: _28  and  _29
REMARK   10  A    between atoms: _31  and  _33
REMARK   11  A    between atoms: _33  and  _34
REMARK   12  A    between atoms: _33  and  _36
REMARK   13  A    between atoms: _36  and  _37
REMARK   14  A    between atoms: _40  and  _41
REMARK   15  A    between atoms: _46  and  _48
REMARK   16  A    between atoms: _48  and  _49
REMARK   17  A    between atoms: _48  and  _51
REMARK   18  A    between atoms: _51  and  _52
REMARK   19  A    between atoms: _57  and  _59
REMARK   20  A    between atoms: _59  and  _60
REMARK   21  A    between atoms: _59  and  _62
REMARK   22  A    between atoms: _62  and  _63
REMARK   23  A    between atoms: _68  and  _70
REMARK   24  A    between atoms: _70  and  _71
REMARK   25  A    between atoms: _74  and  _76
REMARK   26  A    between atoms: _76  and  _77
REMARK   27  A    between atoms: _76  and  _79
REMARK   28  A    between atoms: _79  and  _80
REMARK   29  A    between atoms: _86  and  _88
REMARK   30  A    between atoms: _88  and  _89
REMARK   31  A    between atoms: _88  and  _91
REMARK   32  A    between atoms: _91  and  _92
REMARK   33  A    between atoms: _97  and  _99
REMARK   34  A    between atoms: _99  and  _100
REMARK   35  A    between atoms: _99  and  _102
REMARK   36  A    between atoms: _102  and  _103
REMARK   37  A    between atoms: _106  and  _108
REMARK   38  A    between atoms: _108  and  _109
REMARK   39  A    between atoms: _108  and  _111
REMARK   40  A    between atoms: _111  and  _112
REMARK   41  A    between atoms: _112  and  _113
REMARK   42  A    between atoms: _118  and  _120
REMARK   43  A    between atoms: _120  and  _121
REMARK   44  A    between atoms: _120  and  _123
REMARK   45  A    between atoms: _123  and  _124
REMARK   46  A    between atoms: _130  and  _132
REMARK   47  A    between atoms: _143  and  _146
REMARK   48  A    between atoms: _146  and  _147
REMARK   49  A    between atoms: _155  and  _156
REMARK   50  A    between atoms: _164  and  _166
REMARK   51  A    between atoms: _166  and  _167
REMARK   52  A    between atoms: _166  and  _169
REMARK   53  A    between atoms: _169  and  _170
REMARK   54  A    between atoms: _170  and  _171
REMARK   55  A    between atoms: _174  and  _176
REMARK   56  A    between atoms: _176  and  _177
REMARK   57  A    between atoms: _176  and  _179
REMARK   58  A    between atoms: _179  and  _180
REMARK   59  A    between atoms: _185  and  _187
REMARK   60  A    between atoms: _187  and  _188
REMARK   61  A    between atoms: _187  and  _190
REMARK   62  A    between atoms: _190  and  _191
REMARK   63  A    between atoms: _191  and  _192
REMARK   64  A    between atoms: _195  and  _197
REMARK   65  A    between atoms: _197  and  _198
REMARK   66  A    between atoms: _197  and  _200
REMARK   67  A    between atoms: _200  and  _201
REMARK   68  A    between atoms: _204  and  _206
REMARK   69  A    between atoms: _206  and  _207
REMARK   70  A    between atoms: _206  and  _209
REMARK   71  A    between atoms: _209  and  _210
REMARK   72  A    between atoms: _211  and  ZN_415
REMARK   73  A    between atoms: _215  and  _217
REMARK   74  A    between atoms: _217  and  _218
REMARK   75  A    between atoms: _217  and  _220
REMARK   76  A    between atoms: _220  and  _221
REMARK   77  A    between atoms: _224  and  _226
REMARK   78  A    between atoms: _226  and  _227
REMARK   79  A    between atoms: _226  and  _229
REMARK   80  A    between atoms: _232  and  _234
REMARK   81  A    between atoms: _234  and  _235
REMARK   82  A    between atoms: _234  and  _237
REMARK   83  A    between atoms: _237  and  _238
REMARK   84  A    between atoms: _243  and  _245
REMARK   85  A    between atoms: _245  and  _246
REMARK   86  A    between atoms: _245  and  _248
REMARK   87  A    between atoms: _248  and  _249
REMARK   88  A    between atoms: _255  and  _257
REMARK   89  A    between atoms: _257  and  _258
REMARK   90  A    between atoms: _257  and  _260
REMARK   91  A    between atoms: _263  and  _265
REMARK   92  A    between atoms: _265  and  _266
REMARK   93  A    between atoms: _265  and  _268
REMARK   94  A    between atoms: _268  and  _269
REMARK   95  A    between atoms: _272  and  _274
REMARK   96  A    between atoms: _274  and  _275
REMARK   97  A    between atoms: _278  and  _280
REMARK   98  A    between atoms: _280  and  _281
REMARK   99  A    between atoms: _280  and  _283
REMARK  100  A    between atoms: _286  and  _288
REMARK  101  A    between atoms: _288  and  _289
REMARK  102  A    between atoms: _288  and  _291
REMARK  103  A    between atoms: _291  and  _292
REMARK  104  A    between atoms: _295  and  _297
REMARK  105  A    between atoms: _297  and  _298
REMARK  106  A    between atoms: _300  and  _302
REMARK  107  A    between atoms: _302  and  _303
REMARK  108  A    between atoms: _302  and  _305
REMARK  109  A    between atoms: _305  and  _306
REMARK  110  A    between atoms: _308  and  _310
REMARK  111  A    between atoms: _310  and  _311
REMARK  112  A    between atoms: _310  and  _313
REMARK  113  A    between atoms: _313  and  _314
REMARK  114  A    between atoms: _317  and  _319
REMARK  115  A    between atoms: _319  and  _320
REMARK  116  A    between atoms: _319  and  _322
REMARK  117  A    between atoms: _322  and  _323
REMARK  118  A    between atoms: _326  and  _328
REMARK  119  A    between atoms: _328  and  _329
REMARK  120  A    between atoms: _328  and  _331
REMARK  121  A    between atoms: _331  and  _332
REMARK  122  A    between atoms: _336  and  _337
REMARK  123  A    between atoms: _343  and  _344
REMARK  124  A    between atoms: _349  and  _351
REMARK  125  A    between atoms: _351  and  _352
REMARK  126  A    between atoms: _351  and  _354
REMARK  127  A    between atoms: _354  and  _355
REMARK  128  A    between atoms: _358  and  _360
REMARK  129  A    between atoms: _360  and  _361
REMARK  130  A    between atoms: _360  and  _363
REMARK  131  A    between atoms: _363  and  _364
REMARK  132  A    between atoms: _367  and  _369
REMARK  133  A    between atoms: _369  and  _370
REMARK  134  A    between atoms: _369  and  _372
REMARK  135  A    between atoms: _374  and  _376
REMARK  136  A    between atoms: _376  and  _377
REMARK  137  A    between atoms: _376  and  _379
REMARK  138  A    between atoms: _382  and  _384
REMARK  139  A    between atoms: _384  and  _385
REMARK  140  A    between atoms: _384  and  _387
REMARK  141  A    between atoms: _387  and  _388
REMARK  142  A    between atoms: _398  and  _400
REMARK  143  A    between atoms: _400  and  _401
REMARK  144  A    between atoms: _400  and  _403
REMARK  145  A    between atoms: _403  and  _404
REMARK  146  A    between atoms: _404  and  _405
REMARK  147  A    between atoms: _405  and  _406
REMARK                            x       y       z     vdW  Elec       q    Type
REMARK                         _______ _______ _______ _____ _____    ______ ____
ROOT
ATOM      1  O   HOH     1      -6.486   6.073   6.130  0.00  0.00    +0.000 OA
ENDROOT
TORSDOF 0
REMARK  Name = ../refined-set-2016/3kwa/3kwa_pocket.pdb
REMARK  147 active torsions:
REMARK  status: ('A' for Active; 'I' for Inactive)
REMARK    1  A    between atoms: _1  and  _3
REMARK    2  A    between atoms: _3  and  _4
REMARK    3  A    between atoms: _3  and  _6
REMARK    4  A    between atoms: _6  and  _7
REMARK    5  A    between atoms: _17  and  _19
REMARK    6  A    between atoms: _19  and  _20
REMARK    7  A    between atoms: _19  and  _22
REMARK    8  A    between atoms: _22  and  _23
REMARK    9  A    between atoms: _28  and  _29
REMARK   10  A    between atoms: _31  and  _33
REMARK   11  A    between atoms: _33  and  _34
REMARK   12  A    between atoms: _33  and  _36
REMARK   13  A    between atoms: _36  and  _37
REMARK   14  A    between atoms: _40  and  _41
REMARK   15  A    between atoms: _46  and  _48
REMARK   16  A    between atoms: _48  and  _49
REMARK   17  A    between atoms: _48  and  _51
REMARK   18  A    between atoms: _51  and  _52
REMARK   19  A    between atoms: _57  and  _59
REMARK   20  A    between atoms: _59  and  _60
REMARK   21  A    between atoms: _59  and  _62
REMARK   22  A    between atoms: _62  and  _63
REMARK   23  A    between atoms: _68  and  _70
REMARK   24  A    between atoms: _70  and  _71
REMARK   25  A    between atoms: _74  and  _76
REMARK   26  A    between atoms: _76  and  _77
REMARK   27  A    between atoms: _76  and  _79
REMARK   28  A    between atoms: _79  and  _80
REMARK   29  A    between atoms: _86  and  _88
REMARK   30  A    between atoms: _88  and  _89
REMARK   31  A    between atoms: _88  and  _91
REMARK   32  A    between atoms: _91  and  _92
REMARK   33  A    between atoms: _97  and  _99
REMARK   34  A    between atoms: _99  and  _100
REMARK   35  A    between atoms: _99  and  _102
REMARK   36  A    between atoms: _102  and  _103
REMARK   37  A    between atoms: _106  and  _108
REMARK   38  A    between atoms: _108  and  _109
REMARK   39  A    between atoms: _108  and  _111
REMARK   40  A    between atoms: _111  and  _112
REMARK   41  A    between atoms: _112  and  _113
REMARK   42  A    between atoms: _118  and  _120
REMARK   43  A    between atoms: _120  and  _121
REMARK   44  A    between atoms: _120  and  _123
REMARK   45  A    between atoms: _123  and  _124
REMARK   46  A    between atoms: _130  and  _132
REMARK   47  A    between atoms: _143  and  _146
REMARK   48  A    between atoms: _146  and  _147
REMARK   49  A    between atoms: _155  and  _156
REMARK   50  A    between atoms: _164  and  _166
REMARK   51  A    between atoms: _166  and  _167
REMARK   52  A    between atoms: _166  and  _169
REMARK   53  A    between atoms: _169  and  _170
REMARK   54  A    between atoms: _170  and  _171
REMARK   55  A    between atoms: _174  and  _176
REMARK   56  A    between atoms: _176  and  _177
REMARK   57  A    between atoms: _176  and  _179
REMARK   58  A    between atoms: _179  and  _180
REMARK   59  A    between atoms: _185  and  _187
REMARK   60  A    between atoms: _187  and  _188
REMARK   61  A    between atoms: _187  and  _190
REMARK   62  A    between atoms: _190  and  _191
REMARK   63  A    between atoms: _191  and  _192
REMARK   64  A    between atoms: _195  and  _197
REMARK   65  A    between atoms: _197  and  _198
REMARK   66  A    between atoms: _197  and  _200
REMARK   67  A    between atoms: _200  and  _201
REMARK   68  A    between atoms: _204  and  _206
REMARK   69  A    between atoms: _206  and  _207
REMARK   70  A    between atoms: _206  and  _209
REMARK   71  A    between atoms: _209  and  _210
REMARK   72  A    between atoms: _211  and  ZN_415
REMARK   73  A    between atoms: _215  and  _217
REMARK   74  A    between atoms: _217  and  _218
REMARK   75  A    between atoms: _217  and  _220
REMARK   76  A    between atoms: _220  and  _221
REMARK   77  A    between atoms: _224  and  _226
REMARK   78  A    between atoms: _226  and  _227
REMARK   79  A    between atoms: _226  and  _229
REMARK   80  A    between atoms: _232  and  _234
REMARK   81  A    between atoms: _234  and  _235
REMARK   82  A    between atoms: _234  and  _237
REMARK   83  A    between atoms: _237  and  _238
REMARK   84  A    between atoms: _243  and  _245
REMARK   85  A    between atoms: _245  and  _246
REMARK   86  A    between atoms: _245  and  _248
REMARK   87  A    between atoms: _248  and  _249
REMARK   88  A    between atoms: _255  and  _257
REMARK   89  A    between atoms: _257  and  _258
REMARK   90  A    between atoms: _257  and  _260
REMARK   91  A    between atoms: _263  and  _265
REMARK   92  A    between atoms: _265  and  _266
REMARK   93  A    between atoms: _265  and  _268
REMARK   94  A    between atoms: _268  and  _269
REMARK   95  A    between atoms: _272  and  _274
REMARK   96  A    between atoms: _274  and  _275
REMARK   97  A    between atoms: _278  and  _280
REMARK   98  A    between atoms: _280  and  _281
REMARK   99  A    between atoms: _280  and  _283
REMARK  100  A    between atoms: _286  and  _288
REMARK  101  A    between atoms: _288  and  _289
REMARK  102  A    between atoms: _288  and  _291
REMARK  103  A    between atoms: _291  and  _292
REMARK  104  A    between atoms: _295  and  _297
REMARK  105  A    between atoms: _297  and  _298
REMARK  106  A    between atoms: _300  and  _302
REMARK  107  A    between atoms: _302  and  _303
REMARK  108  A    between atoms: _302  and  _305
REMARK  109  A    between atoms: _305  and  _306
REMARK  110  A    between atoms: _308  and  _310
REMARK  111  A    between atoms: _310  and  _311
REMARK  112  A    between atoms: _310  and  _313
REMARK  113  A    between atoms: _313  and  _314
REMARK  114  A    between atoms: _317  and  _319
REMARK  115  A    between atoms: _319  and  _320
REMARK  116  A    between atoms: _319  and  _322
REMARK  117  A    between atoms: _322  and  _323
REMARK  118  A    between atoms: _326  and  _328
REMARK  119  A    between atoms: _328  and  _329
REMARK  120  A    between atoms: _328  and  _331
REMARK  121  A    between atoms: _331  and  _332
REMARK  122  A    between atoms: _336  and  _337
REMARK  123  A    between atoms: _343  and  _344
REMARK  124  A    between atoms: _349  and  _351
REMARK  125  A    between atoms: _351  and  _352
REMARK  126  A    between atoms: _351  and  _354
REMARK  127  A    between atoms: _354  and  _355
REMARK  128  A    between atoms: _358  and  _360
REMARK  129  A    between atoms: _360  and  _361
REMARK  130  A    between atoms: _360  and  _363
REMARK  131  A    between atoms: _363  and  _364
REMARK  132  A    between atoms: _367  and  _369
REMARK  133  A    between atoms: _369  and  _370
REMARK  134  A    between atoms: _369  and  _372
REMARK  135  A    between atoms: _374  and  _376
REMARK  136  A    between atoms: _376  and  _377
REMARK  137  A    between atoms: _376  and  _379
REMARK  138  A    between atoms: _382  and  _384
REMARK  139  A    between atoms: _384  and  _385
REMARK  140  A    between atoms: _384  and  _387
REMARK  141  A    between atoms: _387  and  _388
REMARK  142  A    between atoms: _398  and  _400
REMARK  143  A    between atoms: _400  and  _401
REMARK  144  A    between atoms: _400  and  _403
REMARK  145  A    between atoms: _403  and  _404
REMARK  146  A    between atoms: _404  and  _405
REMARK  147  A    between atoms: _405  and  _406
REMARK                            x       y       z     vdW  Elec       q    Type
REMARK                         _______ _______ _______ _____ _____    ______ ____
ROOT
ATOM      1  O   HOH     1      -7.948   7.844   8.230  0.00  0.00    +0.000 OA
ENDROOT
TORSDOF 0
REMARK  Name = ../refined-set-2016/3kwa/3kwa_pocket.pdb
REMARK  147 active torsions:
REMARK  status: ('A' for Active; 'I' for Inactive)
REMARK    1  A    between atoms: _1  and  _3
REMARK    2  A    between atoms: _3  and  _4
REMARK    3  A    between atoms: _3  and  _6
REMARK    4  A    between atoms: _6  and  _7
REMARK    5  A    between atoms: _17  and  _19
REMARK    6  A    between atoms: _19  and  _20
REMARK    7  A    between atoms: _19  and  _22
REMARK    8  A    between atoms: _22  and  _23
REMARK    9  A    between atoms: _28  and  _29
REMARK   10  A    between atoms: _31  and  _33
REMARK   11  A    between atoms: _33  and  _34
REMARK   12  A    between atoms: _33  and  _36
REMARK   13  A    between atoms: _36  and  _37
REMARK   14  A    between atoms: _40  and  _41
REMARK   15  A    between atoms: _46  and  _48
REMARK   16  A    between atoms: _48  and  _49
REMARK   17  A    between atoms: _48  and  _51
REMARK   18  A    between atoms: _51  and  _52
REMARK   19  A    between atoms: _57  and  _59
REMARK   20  A    between atoms: _59  and  _60
REMARK   21  A    between atoms: _59  and  _62
REMARK   22  A    between atoms: _62  and  _63
REMARK   23  A    between atoms: _68  and  _70
REMARK   24  A    between atoms: _70  and  _71
REMARK   25  A    between atoms: _74  and  _76
REMARK   26  A    between atoms: _76  and  _77
REMARK   27  A    between atoms: _76  and  _79
REMARK   28  A    between atoms: _79  and  _80
REMARK   29  A    between atoms: _86  and  _88
REMARK   30  A    between atoms: _88  and  _89
REMARK   31  A    between atoms: _88  and  _91
REMARK   32  A    between atoms: _91  and  _92
REMARK   33  A    between atoms: _97  and  _99
REMARK   34  A    between atoms: _99  and  _100
REMARK   35  A    between atoms: _99  and  _102
REMARK   36  A    between atoms: _102  and  _103
REMARK   37  A    between atoms: _106  and  _108
REMARK   38  A    between atoms: _108  and  _109
REMARK   39  A    between atoms: _108  and  _111
REMARK   40  A    between atoms: _111  and  _112
REMARK   41  A    between atoms: _112  and  _113
REMARK   42  A    between atoms: _118  and  _120
REMARK   43  A    between atoms: _120  and  _121
REMARK   44  A    between atoms: _120  and  _123
REMARK   45  A    between atoms: _123  and  _124
REMARK   46  A    between atoms: _130  and  _132
REMARK   47  A    between atoms: _143  and  _146
REMARK   48  A    between atoms: _146  and  _147
REMARK   49  A    between atoms: _155  and  _156
REMARK   50  A    between atoms: _164  and  _166
REMARK   51  A    between atoms: _166  and  _167
REMARK   52  A    between atoms: _166  and  _169
REMARK   53  A    between atoms: _169  and  _170
REMARK   54  A    between atoms: _170  and  _171
REMARK   55  A    between atoms: _174  and  _176
REMARK   56  A    between atoms: _176  and  _177
REMARK   57  A    between atoms: _176  and  _179
REMARK   58  A    between atoms: _179  and  _180
REMARK   59  A    between atoms: _185  and  _187
REMARK   60  A    between atoms: _187  and  _188
REMARK   61  A    between atoms: _187  and  _190
REMARK   62  A    between atoms: _190  and  _191
REMARK   63  A    between atoms: _191  and  _192
REMARK   64  A    between atoms: _195  and  _197
REMARK   65  A    between atoms: _197  and  _198
REMARK   66  A    between atoms: _197  and  _200
REMARK   67  A    between atoms: _200  and  _201
REMARK   68  A    between atoms: _204  and  _206
REMARK   69  A    between atoms: _206  and  _207
REMARK   70  A    between atoms: _206  and  _209
REMARK   71  A    between atoms: _209  and  _210
REMARK   72  A    between atoms: _211  and  ZN_415
REMARK   73  A    between atoms: _215  and  _217
REMARK   74  A    between atoms: _217  and  _218
REMARK   75  A    between atoms: _217  and  _220
REMARK   76  A    between atoms: _220  and  _221
REMARK   77  A    between atoms: _224  and  _226
REMARK   78  A    between atoms: _226  and  _227
REMARK   79  A    between atoms: _226  and  _229
REMARK   80  A    between atoms: _232  and  _234
REMARK   81  A    between atoms: _234  and  _235
REMARK   82  A    between atoms: _234  and  _237
REMARK   83  A    between atoms: _237  and  _238
REMARK   84  A    between atoms: _243  and  _245
REMARK   85  A    between atoms: _245  and  _246
REMARK   86  A    between atoms: _245  and  _248
REMARK   87  A    between atoms: _248  and  _249
REMARK   88  A    between atoms: _255  and  _257
REMARK   89  A    between atoms: _257  and  _258
REMARK   90  A    between atoms: _257  and  _260
REMARK   91  A    between atoms: _263  and  _265
REMARK   92  A    between atoms: _265  and  _266
REMARK   93  A    between atoms: _265  and  _268
REMARK   94  A    between atoms: _268  and  _269
REMARK   95  A    between atoms: _272  and  _274
REMARK   96  A    between atoms: _274  and  _275
REMARK   97  A    between atoms: _278  and  _280
REMARK   98  A    between atoms: _280  and  _281
REMARK   99  A    between atoms: _280  and  _283
REMARK  100  A    between atoms: _286  and  _288
REMARK  101  A    between atoms: _288  and  _289
REMARK  102  A    between atoms: _288  and  _291
REMARK  103  A    between atoms: _291  and  _292
REMARK  104  A    between atoms: _295  and  _297
REMARK  105  A    between atoms: _297  and  _298
REMARK  106  A    between atoms: _300  and  _302
REMARK  107  A    between atoms: _302  and  _303
REMARK  108  A    between atoms: _302  and  _305
REMARK  109  A    between atoms: _305  and  _306
REMARK  110  A    between atoms: _308  and  _310
REMARK  111  A    between atoms: _310  and  _311
REMARK  112  A    between atoms: _310  and  _313
REMARK  113  A    between atoms: _313  and  _314
REMARK  114  A    between atoms: _317  and  _319
REMARK  115  A    between atoms: _319  and  _320
REMARK  116  A    between atoms: _319  and  _322
REMARK  117  A    between atoms: _322  and  _323
REMARK  118  A    between atoms: _326  and  _328
REMARK  119  A    between atoms: _328  and  _329
REMARK  120  A    between atoms: _328  and  _331
REMARK  121  A    between atoms: _331  and  _332
REMARK  122  A    between atoms: _336  and  _337
REMARK  123  A    between atoms: _343  and  _344
REMARK  124  A    between atoms: _349  and  _351
REMARK  125  A    between atoms: _351  and  _352
REMARK  126  A    between atoms: _351  and  _354
REMARK  127  A    between atoms: _354  and  _355
REMARK  128  A    between atoms: _358  and  _360
REMARK  129  A    between atoms: _360  and  _361
REMARK  130  A    between atoms: _360  and  _363
REMARK  131  A    between atoms: _363  and  _364
REMARK  132  A    between atoms: _367  and  _369
REMARK  133  A    between atoms: _369  and  _370
REMARK  134  A    between atoms: _369  and  _372
REMARK  135  A    between atoms: _374  and  _376
REMARK  136  A    between atoms: _376  and  _377
REMARK  137  A    between atoms: _376  and  _379
REMARK  138  A    between atoms: _382  and  _384
REMARK  139  A    between atoms: _384  and  _385
REMARK  140  A    between atoms: _384  and  _387
REMARK  141  A    between atoms: _387  and  _388
REMARK  142  A    between atoms: _398  and  _400
REMARK  143  A    between atoms: _400  and  _401
REMARK  144  A    between atoms: _400  and  _403
REMARK  145  A    between atoms: _403  and  _404
REMARK  146  A    between atoms: _404  and  _405
REMARK  147  A    between atoms: _405  and  _406
REMARK                            x       y       z     vdW  Elec       q    Type
REMARK                         _______ _______ _______ _____ _____    ______ ____
ROOT
ATOM      1  O   HOH     1      -6.290   6.468  10.387  0.00  0.00    +0.000 OA
ENDROOT
TORSDOF 0
REMARK  Name = ../refined-set-2016/3kwa/3kwa_pocket.pdb
REMARK  147 active torsions:
REMARK  status: ('A' for Active; 'I' for Inactive)
REMARK    1  A    between atoms: _1  and  _3
REMARK    2  A    between atoms: _3  and  _4
REMARK    3  A    between atoms: _3  and  _6
REMARK    4  A    between atoms: _6  and  _7
REMARK    5  A    between atoms: _17  and  _19
REMARK    6  A    between atoms: _19  and  _20
REMARK    7  A    between atoms: _19  and  _22
REMARK    8  A    between atoms: _22  and  _23
REMARK    9  A    between atoms: _28  and  _29
REMARK   10  A    between atoms: _31  and  _33
REMARK   11  A    between atoms: _33  and  _34
REMARK   12  A    between atoms: _33  and  _36
REMARK   13  A    between atoms: _36  and  _37
REMARK   14  A    between atoms: _40  and  _41
REMARK   15  A    between atoms: _46  and  _48
REMARK   16  A    between atoms: _48  and  _49
REMARK   17  A    between atoms: _48  and  _51
REMARK   18  A    between atoms: _51  and  _52
REMARK   19  A    between atoms: _57  and  _59
REMARK   20  A    between atoms: _59  and  _60
REMARK   21  A    between atoms: _59  and  _62
REMARK   22  A    between atoms: _62  and  _63
REMARK   23  A    between atoms: _68  and  _70
REMARK   24  A    between atoms: _70  and  _71
REMARK   25  A    between atoms: _74  and  _76
REMARK   26  A    between atoms: _76  and  _77
REMARK   27  A    between atoms: _76  and  _79
REMARK   28  A    between atoms: _79  and  _80
REMARK   29  A    between atoms: _86  and  _88
REMARK   30  A    between atoms: _88  and  _89
REMARK   31  A    between atoms: _88  and  _91
REMARK   32  A    between atoms: _91  and  _92
REMARK   33  A    between atoms: _97  and  _99
REMARK   34  A    between atoms: _99  and  _100
REMARK   35  A    between atoms: _99  and  _102
REMARK   36  A    between atoms: _102  and  _103
REMARK   37  A    between atoms: _106  and  _108
REMARK   38  A    between atoms: _108  and  _109
REMARK   39  A    between atoms: _108  and  _111
REMARK   40  A    between atoms: _111  and  _112
REMARK   41  A    between atoms: _112  and  _113
REMARK   42  A    between atoms: _118  and  _120
REMARK   43  A    between atoms: _120  and  _121
REMARK   44  A    between atoms: _120  and  _123
REMARK   45  A    between atoms: _123  and  _124
REMARK   46  A    between atoms: _130  and  _132
REMARK   47  A    between atoms: _143  and  _146
REMARK   48  A    between atoms: _146  and  _147
REMARK   49  A    between atoms: _155  and  _156
REMARK   50  A    between atoms: _164  and  _166
REMARK   51  A    between atoms: _166  and  _167
REMARK   52  A    between atoms: _166  and  _169
REMARK   53  A    between atoms: _169  and  _170
REMARK   54  A    between atoms: _170  and  _171
REMARK   55  A    between atoms: _174  and  _176
REMARK   56  A    between atoms: _176  and  _177
REMARK   57  A    between atoms: _176  and  _179
REMARK   58  A    between atoms: _179  and  _180
REMARK   59  A    between atoms: _185  and  _187
REMARK   60  A    between atoms: _187  and  _188
REMARK   61  A    between atoms: _187  and  _190
REMARK   62  A    between atoms: _190  and  _191
REMARK   63  A    between atoms: _191  and  _192
REMARK   64  A    between atoms: _195  and  _197
REMARK   65  A    between atoms: _197  and  _198
REMARK   66  A    between atoms: _197  and  _200
REMARK   67  A    between atoms: _200  and  _201
REMARK   68  A    between atoms: _204  and  _206
REMARK   69  A    between atoms: _206  and  _207
REMARK   70  A    between atoms: _206  and  _209
REMARK   71  A    between atoms: _209  and  _210
REMARK   72  A    between atoms: _211  and  ZN_415
REMARK   73  A    between atoms: _215  and  _217
REMARK   74  A    between atoms: _217  and  _218
REMARK   75  A    between atoms: _217  and  _220
REMARK   76  A    between atoms: _220  and  _221
REMARK   77  A    between atoms: _224  and  _226
REMARK   78  A    between atoms: _226  and  _227
REMARK   79  A    between atoms: _226  and  _229
REMARK   80  A    between atoms: _232  and  _234
REMARK   81  A    between atoms: _234  and  _235
REMARK   82  A    between atoms: _234  and  _237
REMARK   83  A    between atoms: _237  and  _238
REMARK   84  A    between atoms: _243  and  _245
REMARK   85  A    between atoms: _245  and  _246
REMARK   86  A    between atoms: _245  and  _248
REMARK   87  A    between atoms: _248  and  _249
REMARK   88  A    between atoms: _255  and  _257
REMARK   89  A    between atoms: _257  and  _258
REMARK   90  A    between atoms: _257  and  _260
REMARK   91  A    between atoms: _263  and  _265
REMARK   92  A    between atoms: _265  and  _266
REMARK   93  A    between atoms: _265  and  _268
REMARK   94  A    between atoms: _268  and  _269
REMARK   95  A    between atoms: _272  and  _274
REMARK   96  A    between atoms: _274  and  _275
REMARK   97  A    between atoms: _278  and  _280
REMARK   98  A    between atoms: _280  and  _281
REMARK   99  A    between atoms: _280  and  _283
REMARK  100  A    between atoms: _286  and  _288
REMARK  101  A    between atoms: _288  and  _289
REMARK  102  A    between atoms: _288  and  _291
REMARK  103  A    between atoms: _291  and  _292
REMARK  104  A    between atoms: _295  and  _297
REMARK  105  A    between atoms: _297  and  _298
REMARK  106  A    between atoms: _300  and  _302
REMARK  107  A    between atoms: _302  and  _303
REMARK  108  A    between atoms: _302  and  _305
REMARK  109  A    between atoms: _305  and  _306
REMARK  110  A    between atoms: _308  and  _310
REMARK  111  A    between atoms: _310  and  _311
REMARK  112  A    between atoms: _310  and  _313
REMARK  113  A    between atoms: _313  and  _314
REMARK  114  A    between atoms: _317  and  _319
REMARK  115  A    between atoms: _319  and  _320
REMARK  116  A    between atoms: _319  and  _322
REMARK  117  A    between atoms: _322  and  _323
REMARK  118  A    between atoms: _326  and  _328
REMARK  119  A    between atoms: _328  and  _329
REMARK  120  A    between atoms: _328  and  _331
REMARK  121  A    between atoms: _331  and  _332
REMARK  122  A    between atoms: _336  and  _337
REMARK  123  A    between atoms: _343  and  _344
REMARK  124  A    between atoms: _349  and  _351
REMARK  125  A    between atoms: _351  and  _352
REMARK  126  A    between atoms: _351  and  _354
REMARK  127  A    between atoms: _354  and  _355
REMARK  128  A    between atoms: _358  and  _360
REMARK  129  A    between atoms: _360  and  _361
REMARK  130  A    between atoms: _360  and  _363
REMARK  131  A    between atoms: _363  and  _364
REMARK  132  A    between atoms: _367  and  _369
REMARK  133  A    between atoms: _369  and  _370
REMARK  134  A    between atoms: _369  and  _372
REMARK  135  A    between atoms: _374  and  _376
REMARK  136  A    between atoms: _376  and  _377
REMARK  137  A    between atoms: _376  and  _379
REMARK  138  A    between atoms: _382  and  _384
REMARK  139  A    between atoms: _384  and  _385
REMARK  140  A    between atoms: _384  and  _387
REMARK  141  A    between atoms: _387  and  _388
REMARK  142  A    between atoms: _398  and  _400
REMARK  143  A    between atoms: _400  and  _401
REMARK  144  A    between atoms: _400  and  _403
REMARK  145  A    between atoms: _403  and  _404
REMARK  146  A    between atoms: _404  and  _405
REMARK  147  A    between atoms: _405  and  _406
REMARK                            x       y       z     vdW  Elec       q    Type
REMARK                         _______ _______ _______ _____ _____    ______ ____
ROOT
ATOM      1  O   HOH     1      -6.277   8.896  10.772  0.00  0.00    +0.000 OA
ENDROOT
TORSDOF 0
REMARK  Name = ../refined-set-2016/3kwa/3kwa_pocket.pdb
REMARK  147 active torsions:
REMARK  status: ('A' for Active; 'I' for Inactive)
REMARK    1  A    between atoms: _1  and  _3
REMARK    2  A    between atoms: _3  and  _4
REMARK    3  A    between atoms: _3  and  _6
REMARK    4  A    between atoms: _6  and  _7
REMARK    5  A    between atoms: _17  and  _19
REMARK    6  A    between atoms: _19  and  _20
REMARK    7  A    between atoms: _19  and  _22
REMARK    8  A    between atoms: _22  and  _23
REMARK    9  A    between atoms: _28  and  _29
REMARK   10  A    between atoms: _31  and  _33
REMARK   11  A    between atoms: _33  and  _34
REMARK   12  A    between atoms: _33  and  _36
REMARK   13  A    between atoms: _36  and  _37
REMARK   14  A    between atoms: _40  and  _41
REMARK   15  A    between atoms: _46  and  _48
REMARK   16  A    between atoms: _48  and  _49
REMARK   17  A    between atoms: _48  and  _51
REMARK   18  A    between atoms: _51  and  _52
REMARK   19  A    between atoms: _57  and  _59
REMARK   20  A    between atoms: _59  and  _60
REMARK   21  A    between atoms: _59  and  _62
REMARK   22  A    between atoms: _62  and  _63
REMARK   23  A    between atoms: _68  and  _70
REMARK   24  A    between atoms: _70  and  _71
REMARK   25  A    between atoms: _74  and  _76
REMARK   26  A    between atoms: _76  and  _77
REMARK   27  A    between atoms: _76  and  _79
REMARK   28  A    between atoms: _79  and  _80
REMARK   29  A    between atoms: _86  and  _88
REMARK   30  A    between atoms: _88  and  _89
REMARK   31  A    between atoms: _88  and  _91
REMARK   32  A    between atoms: _91  and  _92
REMARK   33  A    between atoms: _97  and  _99
REMARK   34  A    between atoms: _99  and  _100
REMARK   35  A    between atoms: _99  and  _102
REMARK   36  A    between atoms: _102  and  _103
REMARK   37  A    between atoms: _106  and  _108
REMARK   38  A    between atoms: _108  and  _109
REMARK   39  A    between atoms: _108  and  _111
REMARK   40  A    between atoms: _111  and  _112
REMARK   41  A    between atoms: _112  and  _113
REMARK   42  A    between atoms: _118  and  _120
REMARK   43  A    between atoms: _120  and  _121
REMARK   44  A    between atoms: _120  and  _123
REMARK   45  A    between atoms: _123  and  _124
REMARK   46  A    between atoms: _130  and  _132
REMARK   47  A    between atoms: _143  and  _146
REMARK   48  A    between atoms: _146  and  _147
REMARK   49  A    between atoms: _155  and  _156
REMARK   50  A    between atoms: _164  and  _166
REMARK   51  A    between atoms: _166  and  _167
REMARK   52  A    between atoms: _166  and  _169
REMARK   53  A    between atoms: _169  and  _170
REMARK   54  A    between atoms: _170  and  _171
REMARK   55  A    between atoms: _174  and  _176
REMARK   56  A    between atoms: _176  and  _177
REMARK   57  A    between atoms: _176  and  _179
REMARK   58  A    between atoms: _179  and  _180
REMARK   59  A    between atoms: _185  and  _187
REMARK   60  A    between atoms: _187  and  _188
REMARK   61  A    between atoms: _187  and  _190
REMARK   62  A    between atoms: _190  and  _191
REMARK   63  A    between atoms: _191  and  _192
REMARK   64  A    between atoms: _195  and  _197
REMARK   65  A    between atoms: _197  and  _198
REMARK   66  A    between atoms: _197  and  _200
REMARK   67  A    between atoms: _200  and  _201
REMARK   68  A    between atoms: _204  and  _206
REMARK   69  A    between atoms: _206  and  _207
REMARK   70  A    between atoms: _206  and  _209
REMARK   71  A    between atoms: _209  and  _210
REMARK   72  A    between atoms: _211  and  ZN_415
REMARK   73  A    between atoms: _215  and  _217
REMARK   74  A    between atoms: _217  and  _218
REMARK   75  A    between atoms: _217  and  _220
REMARK   76  A    between atoms: _220  and  _221
REMARK   77  A    between atoms: _224  and  _226
REMARK   78  A    between atoms: _226  and  _227
REMARK   79  A    between atoms: _226  and  _229
REMARK   80  A    between atoms: _232  and  _234
REMARK   81  A    between atoms: _234  and  _235
REMARK   82  A    between atoms: _234  and  _237
REMARK   83  A    between atoms: _237  and  _238
REMARK   84  A    between atoms: _243  and  _245
REMARK   85  A    between atoms: _245  and  _246
REMARK   86  A    between atoms: _245  and  _248
REMARK   87  A    between atoms: _248  and  _249
REMARK   88  A    between atoms: _255  and  _257
REMARK   89  A    between atoms: _257  and  _258
REMARK   90  A    between atoms: _257  and  _260
REMARK   91  A    between atoms: _263  and  _265
REMARK   92  A    between atoms: _265  and  _266
REMARK   93  A    between atoms: _265  and  _268
REMARK   94  A    between atoms: _268  and  _269
REMARK   95  A    between atoms: _272  and  _274
REMARK   96  A    between atoms: _274  and  _275
REMARK   97  A    between atoms: _278  and  _280
REMARK   98  A    between atoms: _280  and  _281
REMARK   99  A    between atoms: _280  and  _283
REMARK  100  A    between atoms: _286  and  _288
REMARK  101  A    between atoms: _288  and  _289
REMARK  102  A    between atoms: _288  and  _291
REMARK  103  A    between atoms: _291  and  _292
REMARK  104  A    between atoms: _295  and  _297
REMARK  105  A    between atoms: _297  and  _298
REMARK  106  A    between atoms: _300  and  _302
REMARK  107  A    between atoms: _302  and  _303
REMARK  108  A    between atoms: _302  and  _305
REMARK  109  A    between atoms: _305  and  _306
REMARK  110  A    between atoms: _308  and  _310
REMARK  111  A    between atoms: _310  and  _311
REMARK  112  A    between atoms: _310  and  _313
REMARK  113  A    between atoms: _313  and  _314
REMARK  114  A    between atoms: _317  and  _319
REMARK  115  A    between atoms: _319  and  _320
REMARK  116  A    between atoms: _319  and  _322
REMARK  117  A    between atoms: _322  and  _323
REMARK  118  A    between atoms: _326  and  _328
REMARK  119  A    between atoms: _328  and  _329
REMARK  120  A    between atoms: _328  and  _331
REMARK  121  A    between atoms: _331  and  _332
REMARK  122  A    between atoms: _336  and  _337
REMARK  123  A    between atoms: _343  and  _344
REMARK  124  A    between atoms: _349  and  _351
REMARK  125  A    between atoms: _351  and  _352
REMARK  126  A    between atoms: _351  and  _354
REMARK  127  A    between atoms: _354  and  _355
REMARK  128  A    between atoms: _358  and  _360
REMARK  129  A    between atoms: _360  and  _361
REMARK  130  A    between atoms: _360  and  _363
REMARK  131  A    between atoms: _363  and  _364
REMARK  132  A    between atoms: _367  and  _369
REMARK  133  A    between atoms: _369  and  _370
REMARK  134  A    between atoms: _369  and  _372
REMARK  135  A    between atoms: _374  and  _376
REMARK  136  A    between atoms: _376  and  _377
REMARK  137  A    between atoms: _376  and  _379
REMARK  138  A    between atoms: _382  and  _384
REMARK  139  A    between atoms: _384  and  _385
REMARK  140  A    between atoms: _384  and  _387
REMARK  141  A    between atoms: _387  and  _388
REMARK  142  A    between atoms: _398  and  _400
REMARK  143  A    between atoms: _400  and  _401
REMARK  144  A    between atoms: _400  and  _403
REMARK  145  A    between atoms: _403  and  _404
REMARK  146  A    between atoms: _404  and  _405
REMARK  147  A    between atoms: _405  and  _406
REMARK                            x       y       z     vdW  Elec       q    Type
REMARK                         _______ _______ _______ _____ _____    ______ ____
ROOT
ATOM      1  O   HOH     1      -3.687   5.184  10.348  0.00  0.00    +0.000 OA
ENDROOT
TORSDOF 0
REMARK  Name = ../refined-set-2016/3kwa/3kwa_pocket.pdb
REMARK  147 active torsions:
REMARK  status: ('A' for Active; 'I' for Inactive)
REMARK    1  A    between atoms: _1  and  _3
REMARK    2  A    between atoms: _3  and  _4
REMARK    3  A    between atoms: _3  and  _6
REMARK    4  A    between atoms: _6  and  _7
REMARK    5  A    between atoms: _17  and  _19
REMARK    6  A    between atoms: _19  and  _20
REMARK    7  A    between atoms: _19  and  _22
REMARK    8  A    between atoms: _22  and  _23
REMARK    9  A    between atoms: _28  and  _29
REMARK   10  A    between atoms: _31  and  _33
REMARK   11  A    between atoms: _33  and  _34
REMARK   12  A    between atoms: _33  and  _36
REMARK   13  A    between atoms: _36  and  _37
REMARK   14  A    between atoms: _40  and  _41
REMARK   15  A    between atoms: _46  and  _48
REMARK   16  A    between atoms: _48  and  _49
REMARK   17  A    between atoms: _48  and  _51
REMARK   18  A    between atoms: _51  and  _52
REMARK   19  A    between atoms: _57  and  _59
REMARK   20  A    between atoms: _59  and  _60
REMARK   21  A    between atoms: _59  and  _62
REMARK   22  A    between atoms: _62  and  _63
REMARK   23  A    between atoms: _68  and  _70
REMARK   24  A    between atoms: _70  and  _71
REMARK   25  A    between atoms: _74  and  _76
REMARK   26  A    between atoms: _76  and  _77
REMARK   27  A    between atoms: _76  and  _79
REMARK   28  A    between atoms: _79  and  _80
REMARK   29  A    between atoms: _86  and  _88
REMARK   30  A    between atoms: _88  and  _89
REMARK   31  A    between atoms: _88  and  _91
REMARK   32  A    between atoms: _91  and  _92
REMARK   33  A    between atoms: _97  and  _99
REMARK   34  A    between atoms: _99  and  _100
REMARK   35  A    between atoms: _99  and  _102
REMARK   36  A    between atoms: _102  and  _103
REMARK   37  A    between atoms: _106  and  _108
REMARK   38  A    between atoms: _108  and  _109
REMARK   39  A    between atoms: _108  and  _111
REMARK   40  A    between atoms: _111  and  _112
REMARK   41  A    between atoms: _112  and  _113
REMARK   42  A    between atoms: _118  and  _120
REMARK   43  A    between atoms: _120  and  _121
REMARK   44  A    between atoms: _120  and  _123
REMARK   45  A    between atoms: _123  and  _124
REMARK   46  A    between atoms: _130  and  _132
REMARK   47  A    between atoms: _143  and  _146
REMARK   48  A    between atoms: _146  and  _147
REMARK   49  A    between atoms: _155  and  _156
REMARK   50  A    between atoms: _164  and  _166
REMARK   51  A    between atoms: _166  and  _167
REMARK   52  A    between atoms: _166  and  _169
REMARK   53  A    between atoms: _169  and  _170
REMARK   54  A    between atoms: _170  and  _171
REMARK   55  A    between atoms: _174  and  _176
REMARK   56  A    between atoms: _176  and  _177
REMARK   57  A    between atoms: _176  and  _179
REMARK   58  A    between atoms: _179  and  _180
REMARK   59  A    between atoms: _185  and  _187
REMARK   60  A    between atoms: _187  and  _188
REMARK   61  A    between atoms: _187  and  _190
REMARK   62  A    between atoms: _190  and  _191
REMARK   63  A    between atoms: _191  and  _192
REMARK   64  A    between atoms: _195  and  _197
REMARK   65  A    between atoms: _197  and  _198
REMARK   66  A    between atoms: _197  and  _200
REMARK   67  A    between atoms: _200  and  _201
REMARK   68  A    between atoms: _204  and  _206
REMARK   69  A    between atoms: _206  and  _207
REMARK   70  A    between atoms: _206  and  _209
REMARK   71  A    between atoms: _209  and  _210
REMARK   72  A    between atoms: _211  and  ZN_415
REMARK   73  A    between atoms: _215  and  _217
REMARK   74  A    between atoms: _217  and  _218
REMARK   75  A    between atoms: _217  and  _220
REMARK   76  A    between atoms: _220  and  _221
REMARK   77  A    between atoms: _224  and  _226
REMARK   78  A    between atoms: _226  and  _227
REMARK   79  A    between atoms: _226  and  _229
REMARK   80  A    between atoms: _232  and  _234
REMARK   81  A    between atoms: _234  and  _235
REMARK   82  A    between atoms: _234  and  _237
REMARK   83  A    between atoms: _237  and  _238
REMARK   84  A    between atoms: _243  and  _245
REMARK   85  A    between atoms: _245  and  _246
REMARK   86  A    between atoms: _245  and  _248
REMARK   87  A    between atoms: _248  and  _249
REMARK   88  A    between atoms: _255  and  _257
REMARK   89  A    between atoms: _257  and  _258
REMARK   90  A    between atoms: _257  and  _260
REMARK   91  A    between atoms: _263  and  _265
REMARK   92  A    between atoms: _265  and  _266
REMARK   93  A    between atoms: _265  and  _268
REMARK   94  A    between atoms: _268  and  _269
REMARK   95  A    between atoms: _272  and  _274
REMARK   96  A    between atoms: _274  and  _275
REMARK   97  A    between atoms: _278  and  _280
REMARK   98  A    between atoms: _280  and  _281
REMARK   99  A    between atoms: _280  and  _283
REMARK  100  A    between atoms: _286  and  _288
REMARK  101  A    between atoms: _288  and  _289
REMARK  102  A    between atoms: _288  and  _291
REMARK  103  A    between atoms: _291  and  _292
REMARK  104  A    between atoms: _295  and  _297
REMARK  105  A    between atoms: _297  and  _298
REMARK  106  A    between atoms: _300  and  _302
REMARK  107  A    between atoms: _302  and  _303
REMARK  108  A    between atoms: _302  and  _305
REMARK  109  A    between atoms: _305  and  _306
REMARK  110  A    between atoms: _308  and  _310
REMARK  111  A    between atoms: _310  and  _311
REMARK  112  A    between atoms: _310  and  _313
REMARK  113  A    between atoms: _313  and  _314
REMARK  114  A    between atoms: _317  and  _319
REMARK  115  A    between atoms: _319  and  _320
REMARK  116  A    between atoms: _319  and  _322
REMARK  117  A    between atoms: _322  and  _323
REMARK  118  A    between atoms: _326  and  _328
REMARK  119  A    between atoms: _328  and  _329
REMARK  120  A    between atoms: _328  and  _331
REMARK  121  A    between atoms: _331  and  _332
REMARK  122  A    between atoms: _336  and  _337
REMARK  123  A    between atoms: _343  and  _344
REMARK  124  A    between atoms: _349  and  _351
REMARK  125  A    between atoms: _351  and  _352
REMARK  126  A    between atoms: _351  and  _354
REMARK  127  A    between atoms: _354  and  _355
REMARK  128  A    between atoms: _358  and  _360
REMARK  129  A    between atoms: _360  and  _361
REMARK  130  A    between atoms: _360  and  _363
REMARK  131  A    between atoms: _363  and  _364
REMARK  132  A    between atoms: _367  and  _369
REMARK  133  A    between atoms: _369  and  _370
REMARK  134  A    between atoms: _369  and  _372
REMARK  135  A    between atoms: _374  and  _376
REMARK  136  A    between atoms: _376  and  _377
REMARK  137  A    between atoms: _376  and  _379
REMARK  138  A    between atoms: _382  and  _384
REMARK  139  A    between atoms: _384  and  _385
REMARK  140  A    between atoms: _384  and  _387
REMARK  141  A    between atoms: _387  and  _388
REMARK  142  A    between atoms: _398  and  _400
REMARK  143  A    between atoms: _400  and  _401
REMARK  144  A    between atoms: _400  and  _403
REMARK  145  A    between atoms: _403  and  _404
REMARK  146  A    between atoms: _404  and  _405
REMARK  147  A    between atoms: _405  and  _406
REMARK                            x       y       z     vdW  Elec       q    Type
REMARK                         _______ _______ _______ _____ _____    ______ ____
ROOT
ATOM      1  O   HOH     1      -1.934   6.603  11.517  0.00  0.00    +0.000 OA
ENDROOT
TORSDOF 0
