REMARK  Name = ../refined-set-2016/4lm0/4lm0_pocket.pdb
REMARK  135 active torsions:
REMARK  status: ('A' for Active; 'I' for Inactive)
REMARK    1  A    between atoms: _1  and  _3
REMARK    2  A    between atoms: _3  and  _4
REMARK    3  A    between atoms: _3  and  _6
REMARK    4  A    between atoms: _6  and  _7
REMARK    5  A    between atoms: _12  and  _13
REMARK    6  A    between atoms: _15  and  _17
REMARK    7  A    between atoms: _17  and  _18
REMARK    8  A    between atoms: _17  and  _20
REMARK    9  A    between atoms: _20  and  _21
REMARK   10  A    between atoms: _26  and  _28
REMARK   11  A    between atoms: _28  and  _29
REMARK   12  A    between atoms: _28  and  _31
REMARK   13  A    between atoms: _31  and  _32
REMARK   14  A    between atoms: _36  and  NI_327
REMARK   15  A    between atoms: _37  and  _39
REMARK   16  A    between atoms: _39  and  _40
REMARK   17  A    between atoms: _39  and  _42
REMARK   18  A    between atoms: _42  and  _43
REMARK   19  A    between atoms: _48  and  _50
REMARK   20  A    between atoms: _50  and  _51
REMARK   21  A    between atoms: _50  and  _53
REMARK   22  A    between atoms: _53  and  _54
REMARK   23  A    between atoms: _56  and  _58
REMARK   24  A    between atoms: _58  and  _59
REMARK   25  A    between atoms: _58  and  _61
REMARK   26  A    between atoms: _61  and  _62
REMARK   27  A    between atoms: _67  and  _69
REMARK   28  A    between atoms: _69  and  _70
REMARK   29  A    between atoms: _69  and  _72
REMARK   30  A    between atoms: _72  and  _73
REMARK   31  A    between atoms: _75  and  _77
REMARK   32  A    between atoms: _77  and  _78
REMARK   33  A    between atoms: _77  and  _80
REMARK   34  A    between atoms: _80  and  _81
REMARK   35  A    between atoms: _84  and  _86
REMARK   36  A    between atoms: _86  and  _87
REMARK   37  A    between atoms: _86  and  _89
REMARK   38  A    between atoms: _89  and  _90
REMARK   39  A    between atoms: _93  and  _95
REMARK   40  A    between atoms: _95  and  _96
REMARK   41  A    between atoms: _95  and  _98
REMARK   42  A    between atoms: _98  and  _99
REMARK   43  A    between atoms: _102  and  _104
REMARK   44  A    between atoms: _104  and  _105
REMARK   45  A    between atoms: _108  and  _110
REMARK   46  A    between atoms: _110  and  _111
REMARK   47  A    between atoms: _110  and  _113
REMARK   48  A    between atoms: _113  and  _114
REMARK   49  A    between atoms: _120  and  _122
REMARK   50  A    between atoms: _122  and  _123
REMARK   51  A    between atoms: _122  and  _125
REMARK   52  A    between atoms: _125  and  _126
REMARK   53  A    between atoms: _126  and  _128
REMARK   54  A    between atoms: _128  and  NI_327
REMARK   55  A    between atoms: _129  and  _131
REMARK   56  A    between atoms: _131  and  _132
REMARK   57  A    between atoms: _131  and  _134
REMARK   58  A    between atoms: _134  and  _135
REMARK   59  A    between atoms: _138  and  _140
REMARK   60  A    between atoms: _140  and  _141
REMARK   61  A    between atoms: _140  and  _143
REMARK   62  A    between atoms: _143  and  _144
REMARK   63  A    between atoms: _146  and  _148
REMARK   64  A    between atoms: _148  and  _149
REMARK   65  A    between atoms: _148  and  _151
REMARK   66  A    between atoms: _154  and  _156
REMARK   67  A    between atoms: _156  and  _157
REMARK   68  A    between atoms: _160  and  _162
REMARK   69  A    between atoms: _162  and  _163
REMARK   70  A    between atoms: _162  and  _165
REMARK   71  A    between atoms: _165  and  _166
REMARK   72  A    between atoms: _169  and  _171
REMARK   73  A    between atoms: _171  and  _172
REMARK   74  A    between atoms: _171  and  _174
REMARK   75  A    between atoms: _174  and  _175
REMARK   76  A    between atoms: _180  and  _181
REMARK   77  A    between atoms: _183  and  _185
REMARK   78  A    between atoms: _185  and  _186
REMARK   79  A    between atoms: _185  and  _188
REMARK   80  A    between atoms: _188  and  _189
REMARK   81  A    between atoms: _189  and  _190
REMARK   82  A    between atoms: _193  and  _195
REMARK   83  A    between atoms: _195  and  _196
REMARK   84  A    between atoms: _195  and  _198
REMARK   85  A    between atoms: _198  and  _199
REMARK   86  A    between atoms: _205  and  _207
REMARK   87  A    between atoms: _207  and  _208
REMARK   88  A    between atoms: _207  and  _210
REMARK   89  A    between atoms: _210  and  _211
REMARK   90  A    between atoms: _214  and  _216
REMARK   91  A    between atoms: _216  and  _217
REMARK   92  A    between atoms: _216  and  _219
REMARK   93  A    between atoms: _219  and  _220
REMARK   94  A    between atoms: _220  and  _221
REMARK   95  A    between atoms: _223  and  _225
REMARK   96  A    between atoms: _225  and  _226
REMARK   97  A    between atoms: _225  and  _228
REMARK   98  A    between atoms: _228  and  _229
REMARK   99  A    between atoms: _229  and  _230
REMARK  100  A    between atoms: _232  and  _234
REMARK  101  A    between atoms: _234  and  _235
REMARK  102  A    between atoms: _234  and  _237
REMARK  103  A    between atoms: _240  and  _242
REMARK  104  A    between atoms: _242  and  _243
REMARK  105  A    between atoms: _245  and  _247
REMARK  106  A    between atoms: _247  and  _248
REMARK  107  A    between atoms: _247  and  _250
REMARK  108  A    between atoms: _250  and  _251
REMARK  109  A    between atoms: _251  and  _252
REMARK  110  A    between atoms: _257  and  _259
REMARK  111  A    between atoms: _259  and  _260
REMARK  112  A    between atoms: _259  and  _262
REMARK  113  A    between atoms: _262  and  _263
REMARK  114  A    between atoms: _266  and  _268
REMARK  115  A    between atoms: _268  and  _269
REMARK  116  A    between atoms: _271  and  _273
REMARK  117  A    between atoms: _273  and  _274
REMARK  118  A    between atoms: _273  and  _276
REMARK  119  A    between atoms: _276  and  _277
REMARK  120  A    between atoms: _283  and  _285
REMARK  121  A    between atoms: _285  and  _286
REMARK  122  A    between atoms: _285  and  _288
REMARK  123  A    between atoms: _288  and  _289
REMARK  124  A    between atoms: _294  and  _295
REMARK  125  A    between atoms: _297  and  _299
REMARK  126  A    between atoms: _299  and  _300
REMARK  127  A    between atoms: _299  and  _302
REMARK  128  A    between atoms: _305  and  _307
REMARK  129  A    between atoms: _307  and  _308
REMARK  130  A    between atoms: _311  and  _313
REMARK  131  A    between atoms: _313  and  _314
REMARK  132  A    between atoms: _313  and  _316
REMARK  133  A    between atoms: _316  and  _317
REMARK  134  A    between atoms: NI_327  and  _345
REMARK  135  A    between atoms: NI_328  and  _345
REMARK                            x       y       z     vdW  Elec       q    Type
REMARK                         _______ _______ _______ _____ _____    ______ ____
ROOT
ATOM      1  C   TYR A   1      13.687  12.641  48.118  0.00  0.00    +0.239 C 
ATOM      2  O   TYR A   1      13.240  12.342  49.226  0.00  0.00    -0.274 OA
ATOM      3  N   HIS A   2      14.233  11.746  47.284  0.00  0.00    -0.298 N 
ATOM      4  H   HIS A   2      14.634  12.057  46.376  0.00  0.00    +0.150 HD
ENDROOT
BRANCH   1   5
ATOM      5  CA  TYR A   1      13.557  14.091  47.643  0.00  0.00    +0.149 C 
BRANCH   5   6
ATOM      6  N   TYR A   1      14.756  14.715  47.069  0.00  0.00    -0.238 NA
ATOM      7  H   TYR A   1      15.240  14.257  46.271  0.00  0.00    +0.142 HD
ENDBRANCH   5   6
BRANCH   5   8
ATOM      8  CB  TYR A   1      12.393  14.185  46.673  0.00  0.00    +0.053 C 
BRANCH   8   9
ATOM      9  CG  TYR A   1      11.118  13.581  47.225  0.00  0.00    -0.020 A 
ATOM     10  CD2 TYR A   1      10.426  14.213  48.241  0.00  0.00    -0.001 A 
ATOM     11  CE2 TYR A   1       9.236  13.643  48.765  0.00  0.00    +0.036 A 
ATOM     12  CZ  TYR A   1       8.769  12.463  48.254  0.00  0.00    +0.134 A 
ATOM     13  CE1 TYR A   1       9.457  11.790  47.249  0.00  0.00    +0.036 A 
ATOM     14  CD1 TYR A   1      10.625  12.356  46.738  0.00  0.00    -0.001 A 
BRANCH  12  15
ATOM     15  OH  TYR A   1       7.594  11.926  48.747  0.00  0.00    -0.506 OA
ATOM     16  HH  TYR A   1       7.231  12.520  49.451  0.00  0.00    +0.292 HD
ENDBRANCH  12  15
ENDBRANCH   8   9
ENDBRANCH   5   8
ENDBRANCH   1   5
BRANCH   3  17
ATOM     17  CA  HIS A   2      14.264  10.317  47.656  0.00  0.00    +0.143 C 
BRANCH  17  18
ATOM     18  C   HIS A   2      15.461  10.025  48.525  0.00  0.00    +0.227 C 
ATOM     19  O   HIS A   2      16.374   9.309  48.106  0.00  0.00    -0.286 OA
ENDBRANCH  17  18
BRANCH  17  20
ATOM     20  CB  HIS A   2      14.252   9.425  46.439  0.00  0.00    +0.075 C 
BRANCH  20  21
ATOM     21  CG  HIS A   2      12.969   9.459  45.682  0.00  0.00    +0.082 A 
ATOM     22  CD2 HIS A   2      11.801   8.801  45.871  0.00  0.00    +0.115 A 
ATOM     23  NE2 HIS A   2      10.926   9.235  44.901  0.00  0.00    -0.221 NA
ATOM     24  CE1 HIS A   2      11.543  10.113  44.131  0.00  0.00    +0.199 A 
ATOM     25  ND1 HIS A   2      12.770  10.292  44.604  0.00  0.00    -0.227 NA
ENDBRANCH  20  21
ENDBRANCH  17  20
ENDBRANCH   3  17
TORSDOF 9
REMARK  Name = ../refined-set-2016/4lm0/4lm0_pocket.pdb
REMARK  135 active torsions:
REMARK  status: ('A' for Active; 'I' for Inactive)
REMARK    1  A    between atoms: _1  and  _3
REMARK    2  A    between atoms: _3  and  _4
REMARK    3  A    between atoms: _3  and  _6
REMARK    4  A    between atoms: _6  and  _7
REMARK    5  A    between atoms: _12  and  _13
REMARK    6  A    between atoms: _15  and  _17
REMARK    7  A    between atoms: _17  and  _18
REMARK    8  A    between atoms: _17  and  _20
REMARK    9  A    between atoms: _20  and  _21
REMARK   10  A    between atoms: _26  and  _28
REMARK   11  A    between atoms: _28  and  _29
REMARK   12  A    between atoms: _28  and  _31
REMARK   13  A    between atoms: _31  and  _32
REMARK   14  A    between atoms: _36  and  NI_327
REMARK   15  A    between atoms: _37  and  _39
REMARK   16  A    between atoms: _39  and  _40
REMARK   17  A    between atoms: _39  and  _42
REMARK   18  A    between atoms: _42  and  _43
REMARK   19  A    between atoms: _48  and  _50
REMARK   20  A    between atoms: _50  and  _51
REMARK   21  A    between atoms: _50  and  _53
REMARK   22  A    between atoms: _53  and  _54
REMARK   23  A    between atoms: _56  and  _58
REMARK   24  A    between atoms: _58  and  _59
REMARK   25  A    between atoms: _58  and  _61
REMARK   26  A    between atoms: _61  and  _62
REMARK   27  A    between atoms: _67  and  _69
REMARK   28  A    between atoms: _69  and  _70
REMARK   29  A    between atoms: _69  and  _72
REMARK   30  A    between atoms: _72  and  _73
REMARK   31  A    between atoms: _75  and  _77
REMARK   32  A    between atoms: _77  and  _78
REMARK   33  A    between atoms: _77  and  _80
REMARK   34  A    between atoms: _80  and  _81
REMARK   35  A    between atoms: _84  and  _86
REMARK   36  A    between atoms: _86  and  _87
REMARK   37  A    between atoms: _86  and  _89
REMARK   38  A    between atoms: _89  and  _90
REMARK   39  A    between atoms: _93  and  _95
REMARK   40  A    between atoms: _95  and  _96
REMARK   41  A    between atoms: _95  and  _98
REMARK   42  A    between atoms: _98  and  _99
REMARK   43  A    between atoms: _102  and  _104
REMARK   44  A    between atoms: _104  and  _105
REMARK   45  A    between atoms: _108  and  _110
REMARK   46  A    between atoms: _110  and  _111
REMARK   47  A    between atoms: _110  and  _113
REMARK   48  A    between atoms: _113  and  _114
REMARK   49  A    between atoms: _120  and  _122
REMARK   50  A    between atoms: _122  and  _123
REMARK   51  A    between atoms: _122  and  _125
REMARK   52  A    between atoms: _125  and  _126
REMARK   53  A    between atoms: _126  and  _128
REMARK   54  A    between atoms: _128  and  NI_327
REMARK   55  A    between atoms: _129  and  _131
REMARK   56  A    between atoms: _131  and  _132
REMARK   57  A    between atoms: _131  and  _134
REMARK   58  A    between atoms: _134  and  _135
REMARK   59  A    between atoms: _138  and  _140
REMARK   60  A    between atoms: _140  and  _141
REMARK   61  A    between atoms: _140  and  _143
REMARK   62  A    between atoms: _143  and  _144
REMARK   63  A    between atoms: _146  and  _148
REMARK   64  A    between atoms: _148  and  _149
REMARK   65  A    between atoms: _148  and  _151
REMARK   66  A    between atoms: _154  and  _156
REMARK   67  A    between atoms: _156  and  _157
REMARK   68  A    between atoms: _160  and  _162
REMARK   69  A    between atoms: _162  and  _163
REMARK   70  A    between atoms: _162  and  _165
REMARK   71  A    between atoms: _165  and  _166
REMARK   72  A    between atoms: _169  and  _171
REMARK   73  A    between atoms: _171  and  _172
REMARK   74  A    between atoms: _171  and  _174
REMARK   75  A    between atoms: _174  and  _175
REMARK   76  A    between atoms: _180  and  _181
REMARK   77  A    between atoms: _183  and  _185
REMARK   78  A    between atoms: _185  and  _186
REMARK   79  A    between atoms: _185  and  _188
REMARK   80  A    between atoms: _188  and  _189
REMARK   81  A    between atoms: _189  and  _190
REMARK   82  A    between atoms: _193  and  _195
REMARK   83  A    between atoms: _195  and  _196
REMARK   84  A    between atoms: _195  and  _198
REMARK   85  A    between atoms: _198  and  _199
REMARK   86  A    between atoms: _205  and  _207
REMARK   87  A    between atoms: _207  and  _208
REMARK   88  A    between atoms: _207  and  _210
REMARK   89  A    between atoms: _210  and  _211
REMARK   90  A    between atoms: _214  and  _216
REMARK   91  A    between atoms: _216  and  _217
REMARK   92  A    between atoms: _216  and  _219
REMARK   93  A    between atoms: _219  and  _220
REMARK   94  A    between atoms: _220  and  _221
REMARK   95  A    between atoms: _223  and  _225
REMARK   96  A    between atoms: _225  and  _226
REMARK   97  A    between atoms: _225  and  _228
REMARK   98  A    between atoms: _228  and  _229
REMARK   99  A    between atoms: _229  and  _230
REMARK  100  A    between atoms: _232  and  _234
REMARK  101  A    between atoms: _234  and  _235
REMARK  102  A    between atoms: _234  and  _237
REMARK  103  A    between atoms: _240  and  _242
REMARK  104  A    between atoms: _242  and  _243
REMARK  105  A    between atoms: _245  and  _247
REMARK  106  A    between atoms: _247  and  _248
REMARK  107  A    between atoms: _247  and  _250
REMARK  108  A    between atoms: _250  and  _251
REMARK  109  A    between atoms: _251  and  _252
REMARK  110  A    between atoms: _257  and  _259
REMARK  111  A    between atoms: _259  and  _260
REMARK  112  A    between atoms: _259  and  _262
REMARK  113  A    between atoms: _262  and  _263
REMARK  114  A    between atoms: _266  and  _268
REMARK  115  A    between atoms: _268  and  _269
REMARK  116  A    between atoms: _271  and  _273
REMARK  117  A    between atoms: _273  and  _274
REMARK  118  A    between atoms: _273  and  _276
REMARK  119  A    between atoms: _276  and  _277
REMARK  120  A    between atoms: _283  and  _285
REMARK  121  A    between atoms: _285  and  _286
REMARK  122  A    between atoms: _285  and  _288
REMARK  123  A    between atoms: _288  and  _289
REMARK  124  A    between atoms: _294  and  _295
REMARK  125  A    between atoms: _297  and  _299
REMARK  126  A    between atoms: _299  and  _300
REMARK  127  A    between atoms: _299  and  _302
REMARK  128  A    between atoms: _305  and  _307
REMARK  129  A    between atoms: _307  and  _308
REMARK  130  A    between atoms: _311  and  _313
REMARK  131  A    between atoms: _313  and  _314
REMARK  132  A    between atoms: _313  and  _316
REMARK  133  A    between atoms: _316  and  _317
REMARK  134  A    between atoms: NI_327  and  _345
REMARK  135  A    between atoms: NI_328  and  _345
REMARK                            x       y       z     vdW  Elec       q    Type
REMARK                         _______ _______ _______ _____ _____    ______ ____
ROOT
ATOM      1  O   UNK A   1       7.356   6.505  48.903  0.00  0.00    +0.000 OA
ENDROOT
BRANCH   1   2
ATOM      2  C   UNK A   1       6.421   5.877  48.379  0.00  0.00    +0.000 C 
ATOM      3  O   UNK A   1       6.421   5.467  47.201  0.00  0.00    +0.000 OA
BRANCH   2   4
ATOM      4  C   UNK A   1       5.179   5.641  49.227  0.00  0.00    +0.000 C 
BRANCH   4   5
ATOM      5  C   UNK A   1       5.105   6.555  50.462  0.00  0.00    +0.000 C 
BRANCH   5   6
ATOM      6  C   UNK A   1       4.635   7.949  50.047  0.00  0.00    +0.000 C 
ATOM      7  N   LEU A   2       3.323   8.133  49.909  0.00  0.00    +0.000 N 
ATOM      8  H   LEU A   2       2.666   7.353  50.113  0.00  0.00    +0.000 HD
ATOM      9  O   UNK A   1       5.414   8.873  49.884  0.00  0.00    +0.000 OA
BRANCH   7  10
ATOM     10  CA  LEU A   2       2.810   9.407  49.479  0.00  0.00    +0.000 C 
BRANCH  10  11
ATOM     11  C   LEU A   2       2.391  10.328  50.605  0.00  0.00    +0.000 C 
ATOM     12  O   LEU A   2       1.758  11.361  50.316  0.00  0.00    +0.000 OA
ENDBRANCH  10  11
BRANCH  10  13
ATOM     13  CB  LEU A   2       1.545   9.188  48.609  0.00  0.00    +0.000 C 
BRANCH  13  14
ATOM     14  CG  LEU A   2       1.747   8.284  47.373  0.00  0.00    +0.000 C 
ATOM     15  CD2 LEU A   2       0.457   8.136  46.618  0.00  0.00    +0.000 C 
ATOM     16  CD1 LEU A   2       2.850   8.832  46.471  0.00  0.00    +0.000 C 
ENDBRANCH  13  14
ENDBRANCH  10  13
ENDBRANCH   7  10
ENDBRANCH   5   6
BRANCH   5  17
ATOM     17  N   UNK A   1       4.172   5.954  51.460  0.00  0.00    +0.000 NA
ATOM     18  H   UNK A   1       3.694   5.061  51.225  0.00  0.00    +0.000 HD
ENDBRANCH   5  17
ENDBRANCH   4   5
ENDBRANCH   2   4
ENDBRANCH   1   2
BRANCH   1  19
ATOM     19 NI   UNK A   1       9.399   6.473  48.361  0.00  0.00    +0.000 Ni
BRANCH  19  23
ATOM     20  C   UNK A   1      10.842   9.682  50.848  0.00  0.00    +0.000 A 
ATOM     21  N   UNK A   1       9.508  10.034  50.820  0.00  0.00    +0.000 NA
ATOM     22  C   UNK A   1       8.829   9.112  50.159  0.00  0.00    +0.000 A 
ATOM     23  N   UNK A   1       9.674   8.177  49.738  0.00  0.00    +0.000 N 
ATOM     24  C   UNK A   1      10.938   8.513  50.165  0.00  0.00    +0.000 A 
BRANCH  20  25
ATOM     25  C   UNK A   1      11.882  10.543  51.505  0.00  0.00    +0.000 C 
BRANCH  25  26
ATOM     26  C   UNK A   1      11.722  10.668  53.016  0.00  0.00    +0.000 C 
BRANCH  26  27
ATOM     27  C   UNK A   1      11.585   9.282  53.651  0.00  0.00    +0.000 C 
ATOM     28  O   UNK A   1      10.505   8.903  54.097  0.00  0.00    +0.000 OA
ENDBRANCH  26  27
BRANCH  26  29
ATOM     29  N   UNK A   1      12.881  11.374  53.598  0.00  0.00    +0.000 NA
ATOM     30  H   UNK A   1      13.660  11.668  52.975  0.00  0.00    +0.000 HD
ENDBRANCH  26  29
ENDBRANCH  25  26
ENDBRANCH  20  25
ENDBRANCH  19  23
BRANCH  19  31
ATOM     31  O   UNK A   1       8.875   5.265  46.770  0.00  0.00    +0.000 OA
BRANCH  31  32
ATOM     32 NI   UNK A   1      10.454   4.527  45.344  0.00  0.00    +0.000 Ni
ATOM     33  O   UNK A   1      10.168   6.477  44.252  0.00  0.00    +0.000 OA
ATOM     34  O   UNK A   1      11.970   3.947  43.785  0.00  0.00    +0.000 OA
ENDBRANCH  31  32
ENDBRANCH  19  31
ENDBRANCH   1  19
TORSDOF 17
REMARK  Name = ../refined-set-2016/4lm0/4lm0_pocket.pdb
REMARK  135 active torsions:
REMARK  status: ('A' for Active; 'I' for Inactive)
REMARK    1  A    between atoms: _1  and  _3
REMARK    2  A    between atoms: _3  and  _4
REMARK    3  A    between atoms: _3  and  _6
REMARK    4  A    between atoms: _6  and  _7
REMARK    5  A    between atoms: _12  and  _13
REMARK    6  A    between atoms: _15  and  _17
REMARK    7  A    between atoms: _17  and  _18
REMARK    8  A    between atoms: _17  and  _20
REMARK    9  A    between atoms: _20  and  _21
REMARK   10  A    between atoms: _26  and  _28
REMARK   11  A    between atoms: _28  and  _29
REMARK   12  A    between atoms: _28  and  _31
REMARK   13  A    between atoms: _31  and  _32
REMARK   14  A    between atoms: _36  and  NI_327
REMARK   15  A    between atoms: _37  and  _39
REMARK   16  A    between atoms: _39  and  _40
REMARK   17  A    between atoms: _39  and  _42
REMARK   18  A    between atoms: _42  and  _43
REMARK   19  A    between atoms: _48  and  _50
REMARK   20  A    between atoms: _50  and  _51
REMARK   21  A    between atoms: _50  and  _53
REMARK   22  A    between atoms: _53  and  _54
REMARK   23  A    between atoms: _56  and  _58
REMARK   24  A    between atoms: _58  and  _59
REMARK   25  A    between atoms: _58  and  _61
REMARK   26  A    between atoms: _61  and  _62
REMARK   27  A    between atoms: _67  and  _69
REMARK   28  A    between atoms: _69  and  _70
REMARK   29  A    between atoms: _69  and  _72
REMARK   30  A    between atoms: _72  and  _73
REMARK   31  A    between atoms: _75  and  _77
REMARK   32  A    between atoms: _77  and  _78
REMARK   33  A    between atoms: _77  and  _80
REMARK   34  A    between atoms: _80  and  _81
REMARK   35  A    between atoms: _84  and  _86
REMARK   36  A    between atoms: _86  and  _87
REMARK   37  A    between atoms: _86  and  _89
REMARK   38  A    between atoms: _89  and  _90
REMARK   39  A    between atoms: _93  and  _95
REMARK   40  A    between atoms: _95  and  _96
REMARK   41  A    between atoms: _95  and  _98
REMARK   42  A    between atoms: _98  and  _99
REMARK   43  A    between atoms: _102  and  _104
REMARK   44  A    between atoms: _104  and  _105
REMARK   45  A    between atoms: _108  and  _110
REMARK   46  A    between atoms: _110  and  _111
REMARK   47  A    between atoms: _110  and  _113
REMARK   48  A    between atoms: _113  and  _114
REMARK   49  A    between atoms: _120  and  _122
REMARK   50  A    between atoms: _122  and  _123
REMARK   51  A    between atoms: _122  and  _125
REMARK   52  A    between atoms: _125  and  _126
REMARK   53  A    between atoms: _126  and  _128
REMARK   54  A    between atoms: _128  and  NI_327
REMARK   55  A    between atoms: _129  and  _131
REMARK   56  A    between atoms: _131  and  _132
REMARK   57  A    between atoms: _131  and  _134
REMARK   58  A    between atoms: _134  and  _135
REMARK   59  A    between atoms: _138  and  _140
REMARK   60  A    between atoms: _140  and  _141
REMARK   61  A    between atoms: _140  and  _143
REMARK   62  A    between atoms: _143  and  _144
REMARK   63  A    between atoms: _146  and  _148
REMARK   64  A    between atoms: _148  and  _149
REMARK   65  A    between atoms: _148  and  _151
REMARK   66  A    between atoms: _154  and  _156
REMARK   67  A    between atoms: _156  and  _157
REMARK   68  A    between atoms: _160  and  _162
REMARK   69  A    between atoms: _162  and  _163
REMARK   70  A    between atoms: _162  and  _165
REMARK   71  A    between atoms: _165  and  _166
REMARK   72  A    between atoms: _169  and  _171
REMARK   73  A    between atoms: _171  and  _172
REMARK   74  A    between atoms: _171  and  _174
REMARK   75  A    between atoms: _174  and  _175
REMARK   76  A    between atoms: _180  and  _181
REMARK   77  A    between atoms: _183  and  _185
REMARK   78  A    between atoms: _185  and  _186
REMARK   79  A    between atoms: _185  and  _188
REMARK   80  A    between atoms: _188  and  _189
REMARK   81  A    between atoms: _189  and  _190
REMARK   82  A    between atoms: _193  and  _195
REMARK   83  A    between atoms: _195  and  _196
REMARK   84  A    between atoms: _195  and  _198
REMARK   85  A    between atoms: _198  and  _199
REMARK   86  A    between atoms: _205  and  _207
REMARK   87  A    between atoms: _207  and  _208
REMARK   88  A    between atoms: _207  and  _210
REMARK   89  A    between atoms: _210  and  _211
REMARK   90  A    between atoms: _214  and  _216
REMARK   91  A    between atoms: _216  and  _217
REMARK   92  A    between atoms: _216  and  _219
REMARK   93  A    between atoms: _219  and  _220
REMARK   94  A    between atoms: _220  and  _221
REMARK   95  A    between atoms: _223  and  _225
REMARK   96  A    between atoms: _225  and  _226
REMARK   97  A    between atoms: _225  and  _228
REMARK   98  A    between atoms: _228  and  _229
REMARK   99  A    between atoms: _229  and  _230
REMARK  100  A    between atoms: _232  and  _234
REMARK  101  A    between atoms: _234  and  _235
REMARK  102  A    between atoms: _234  and  _237
REMARK  103  A    between atoms: _240  and  _242
REMARK  104  A    between atoms: _242  and  _243
REMARK  105  A    between atoms: _245  and  _247
REMARK  106  A    between atoms: _247  and  _248
REMARK  107  A    between atoms: _247  and  _250
REMARK  108  A    between atoms: _250  and  _251
REMARK  109  A    between atoms: _251  and  _252
REMARK  110  A    between atoms: _257  and  _259
REMARK  111  A    between atoms: _259  and  _260
REMARK  112  A    between atoms: _259  and  _262
REMARK  113  A    between atoms: _262  and  _263
REMARK  114  A    between atoms: _266  and  _268
REMARK  115  A    between atoms: _268  and  _269
REMARK  116  A    between atoms: _271  and  _273
REMARK  117  A    between atoms: _273  and  _274
REMARK  118  A    between atoms: _273  and  _276
REMARK  119  A    between atoms: _276  and  _277
REMARK  120  A    between atoms: _283  and  _285
REMARK  121  A    between atoms: _285  and  _286
REMARK  122  A    between atoms: _285  and  _288
REMARK  123  A    between atoms: _288  and  _289
REMARK  124  A    between atoms: _294  and  _295
REMARK  125  A    between atoms: _297  and  _299
REMARK  126  A    between atoms: _299  and  _300
REMARK  127  A    between atoms: _299  and  _302
REMARK  128  A    between atoms: _305  and  _307
REMARK  129  A    between atoms: _307  and  _308
REMARK  130  A    between atoms: _311  and  _313
REMARK  131  A    between atoms: _313  and  _314
REMARK  132  A    between atoms: _313  and  _316
REMARK  133  A    between atoms: _316  and  _317
REMARK  134  A    between atoms: NI_327  and  _345
REMARK  135  A    between atoms: NI_328  and  _345
REMARK                            x       y       z     vdW  Elec       q    Type
REMARK                         _______ _______ _______ _____ _____    ______ ____
ROOT
ATOM      1  CB  HIS A   1      16.547   6.764  45.475  0.00  0.00    +0.072 C 
ENDROOT
BRANCH   1   2
ATOM      2  CG  HIS A   1      15.539   7.008  44.389  0.00  0.00    +0.082 A 
ATOM      3  CD2 HIS A   1      14.348   6.418  44.127  0.00  0.00    +0.115 A 
ATOM      4  NE2 HIS A   1      13.815   7.045  43.025  0.00  0.00    -0.221 NA
ATOM      5  CE1 HIS A   1      14.638   8.009  42.642  0.00  0.00    +0.199 A 
ATOM      6  ND1 HIS A   1      15.683   8.013  43.452  0.00  0.00    -0.227 NA
ENDBRANCH   1   2
BRANCH   1   7
ATOM      7  CA  HIS A   1      17.863   6.129  44.975  0.00  0.00    +0.139 C 
BRANCH   7   8
ATOM      8  N   HIS A   1      18.558   5.442  46.056  0.00  0.00    -0.239 NA
ATOM      9  H   HIS A   1      18.206   5.528  47.031  0.00  0.00    +0.142 HD
ENDBRANCH   7   8
BRANCH   7  10
ATOM     10  C   HIS A   1      18.814   7.178  44.417  0.00  0.00    +0.224 C 
ATOM     11  O   HIS A   1      19.527   7.842  45.156  0.00  0.00    -0.287 OA
ENDBRANCH   7  10
ENDBRANCH   1   7
TORSDOF 4
REMARK  Name = ../refined-set-2016/4lm0/4lm0_pocket.pdb
REMARK  135 active torsions:
REMARK  status: ('A' for Active; 'I' for Inactive)
REMARK    1  A    between atoms: _1  and  _3
REMARK    2  A    between atoms: _3  and  _4
REMARK    3  A    between atoms: _3  and  _6
REMARK    4  A    between atoms: _6  and  _7
REMARK    5  A    between atoms: _12  and  _13
REMARK    6  A    between atoms: _15  and  _17
REMARK    7  A    between atoms: _17  and  _18
REMARK    8  A    between atoms: _17  and  _20
REMARK    9  A    between atoms: _20  and  _21
REMARK   10  A    between atoms: _26  and  _28
REMARK   11  A    between atoms: _28  and  _29
REMARK   12  A    between atoms: _28  and  _31
REMARK   13  A    between atoms: _31  and  _32
REMARK   14  A    between atoms: _36  and  NI_327
REMARK   15  A    between atoms: _37  and  _39
REMARK   16  A    between atoms: _39  and  _40
REMARK   17  A    between atoms: _39  and  _42
REMARK   18  A    between atoms: _42  and  _43
REMARK   19  A    between atoms: _48  and  _50
REMARK   20  A    between atoms: _50  and  _51
REMARK   21  A    between atoms: _50  and  _53
REMARK   22  A    between atoms: _53  and  _54
REMARK   23  A    between atoms: _56  and  _58
REMARK   24  A    between atoms: _58  and  _59
REMARK   25  A    between atoms: _58  and  _61
REMARK   26  A    between atoms: _61  and  _62
REMARK   27  A    between atoms: _67  and  _69
REMARK   28  A    between atoms: _69  and  _70
REMARK   29  A    between atoms: _69  and  _72
REMARK   30  A    between atoms: _72  and  _73
REMARK   31  A    between atoms: _75  and  _77
REMARK   32  A    between atoms: _77  and  _78
REMARK   33  A    between atoms: _77  and  _80
REMARK   34  A    between atoms: _80  and  _81
REMARK   35  A    between atoms: _84  and  _86
REMARK   36  A    between atoms: _86  and  _87
REMARK   37  A    between atoms: _86  and  _89
REMARK   38  A    between atoms: _89  and  _90
REMARK   39  A    between atoms: _93  and  _95
REMARK   40  A    between atoms: _95  and  _96
REMARK   41  A    between atoms: _95  and  _98
REMARK   42  A    between atoms: _98  and  _99
REMARK   43  A    between atoms: _102  and  _104
REMARK   44  A    between atoms: _104  and  _105
REMARK   45  A    between atoms: _108  and  _110
REMARK   46  A    between atoms: _110  and  _111
REMARK   47  A    between atoms: _110  and  _113
REMARK   48  A    between atoms: _113  and  _114
REMARK   49  A    between atoms: _120  and  _122
REMARK   50  A    between atoms: _122  and  _123
REMARK   51  A    between atoms: _122  and  _125
REMARK   52  A    between atoms: _125  and  _126
REMARK   53  A    between atoms: _126  and  _128
REMARK   54  A    between atoms: _128  and  NI_327
REMARK   55  A    between atoms: _129  and  _131
REMARK   56  A    between atoms: _131  and  _132
REMARK   57  A    between atoms: _131  and  _134
REMARK   58  A    between atoms: _134  and  _135
REMARK   59  A    between atoms: _138  and  _140
REMARK   60  A    between atoms: _140  and  _141
REMARK   61  A    between atoms: _140  and  _143
REMARK   62  A    between atoms: _143  and  _144
REMARK   63  A    between atoms: _146  and  _148
REMARK   64  A    between atoms: _148  and  _149
REMARK   65  A    between atoms: _148  and  _151
REMARK   66  A    between atoms: _154  and  _156
REMARK   67  A    between atoms: _156  and  _157
REMARK   68  A    between atoms: _160  and  _162
REMARK   69  A    between atoms: _162  and  _163
REMARK   70  A    between atoms: _162  and  _165
REMARK   71  A    between atoms: _165  and  _166
REMARK   72  A    between atoms: _169  and  _171
REMARK   73  A    between atoms: _171  and  _172
REMARK   74  A    between atoms: _171  and  _174
REMARK   75  A    between atoms: _174  and  _175
REMARK   76  A    between atoms: _180  and  _181
REMARK   77  A    between atoms: _183  and  _185
REMARK   78  A    between atoms: _185  and  _186
REMARK   79  A    between atoms: _185  and  _188
REMARK   80  A    between atoms: _188  and  _189
REMARK   81  A    between atoms: _189  and  _190
REMARK   82  A    between atoms: _193  and  _195
REMARK   83  A    between atoms: _195  and  _196
REMARK   84  A    between atoms: _195  and  _198
REMARK   85  A    between atoms: _198  and  _199
REMARK   86  A    between atoms: _205  and  _207
REMARK   87  A    between atoms: _207  and  _208
REMARK   88  A    between atoms: _207  and  _210
REMARK   89  A    between atoms: _210  and  _211
REMARK   90  A    between atoms: _214  and  _216
REMARK   91  A    between atoms: _216  and  _217
REMARK   92  A    between atoms: _216  and  _219
REMARK   93  A    between atoms: _219  and  _220
REMARK   94  A    between atoms: _220  and  _221
REMARK   95  A    between atoms: _223  and  _225
REMARK   96  A    between atoms: _225  and  _226
REMARK   97  A    between atoms: _225  and  _228
REMARK   98  A    between atoms: _228  and  _229
REMARK   99  A    between atoms: _229  and  _230
REMARK  100  A    between atoms: _232  and  _234
REMARK  101  A    between atoms: _234  and  _235
REMARK  102  A    between atoms: _234  and  _237
REMARK  103  A    between atoms: _240  and  _242
REMARK  104  A    between atoms: _242  and  _243
REMARK  105  A    between atoms: _245  and  _247
REMARK  106  A    between atoms: _247  and  _248
REMARK  107  A    between atoms: _247  and  _250
REMARK  108  A    between atoms: _250  and  _251
REMARK  109  A    between atoms: _251  and  _252
REMARK  110  A    between atoms: _257  and  _259
REMARK  111  A    between atoms: _259  and  _260
REMARK  112  A    between atoms: _259  and  _262
REMARK  113  A    between atoms: _262  and  _263
REMARK  114  A    between atoms: _266  and  _268
REMARK  115  A    between atoms: _268  and  _269
REMARK  116  A    between atoms: _271  and  _273
REMARK  117  A    between atoms: _273  and  _274
REMARK  118  A    between atoms: _273  and  _276
REMARK  119  A    between atoms: _276  and  _277
REMARK  120  A    between atoms: _283  and  _285
REMARK  121  A    between atoms: _285  and  _286
REMARK  122  A    between atoms: _285  and  _288
REMARK  123  A    between atoms: _288  and  _289
REMARK  124  A    between atoms: _294  and  _295
REMARK  125  A    between atoms: _297  and  _299
REMARK  126  A    between atoms: _299  and  _300
REMARK  127  A    between atoms: _299  and  _302
REMARK  128  A    between atoms: _305  and  _307
REMARK  129  A    between atoms: _307  and  _308
REMARK  130  A    between atoms: _311  and  _313
REMARK  131  A    between atoms: _313  and  _314
REMARK  132  A    between atoms: _313  and  _316
REMARK  133  A    between atoms: _316  and  _317
REMARK  134  A    between atoms: NI_327  and  _345
REMARK  135  A    between atoms: NI_328  and  _345
REMARK                            x       y       z     vdW  Elec       q    Type
REMARK                         _______ _______ _______ _____ _____    ______ ____
ROOT
ATOM      1  CA  ASN A   2      12.021   3.974  36.256  0.00  0.00    +0.158 C 
ENDROOT
BRANCH   1   3
ATOM      2  C   SER A   1      12.921   6.144  36.882  0.00  0.00    +0.241 C 
ATOM      3  N   ASN A   2      12.011   5.189  37.077  0.00  0.00    -0.297 N 
ATOM      4  H   ASN A   2      11.289   5.307  37.816  0.00  0.00    +0.150 HD
ATOM      5  O   SER A   1      13.895   5.990  36.135  0.00  0.00    -0.274 OA
BRANCH   2   6
ATOM      6  CA  SER A   1      12.709   7.459  37.637  0.00  0.00    +0.174 C 
BRANCH   6   7
ATOM      7  N   SER A   1      13.896   8.307  37.701  0.00  0.00    -0.236 NA
ATOM      8  H   SER A   1      13.941   9.134  37.071  0.00  0.00    +0.142 HD
ENDBRANCH   6   7
BRANCH   6   9
ATOM      9  CB  SER A   1      11.563   8.227  36.962  0.00  0.00    +0.163 C 
BRANCH   9  10
ATOM     10  OG  SER A   1      11.746   8.353  35.541  0.00  0.00    -0.380 OA
ATOM     11  H   SER A   1      12.588   8.840  35.360  0.00  0.00    +0.211 HD
ENDBRANCH   9  10
ENDBRANCH   6   9
ENDBRANCH   2   6
ENDBRANCH   1   3
BRANCH   1  12
ATOM     12  C   ASN A   2      11.904   4.322  34.764  0.00  0.00    +0.241 C 
ATOM     13  N   SER A   3      11.132   5.358  34.459  0.00  0.00    -0.296 N 
ATOM     14  H   SER A   3      10.656   5.882  35.221  0.00  0.00    +0.150 HD
ATOM     15  O   ASN A   2      12.473   3.635  33.911  0.00  0.00    -0.273 OA
BRANCH  13  16
ATOM     16  CA  SER A   3      10.940   5.774  33.072  0.00  0.00    +0.166 C 
BRANCH  16  17
ATOM     17  C   SER A   3      12.303   6.108  32.467  0.00  0.00    +0.229 C 
ATOM     18  O   SER A   3      12.613   5.690  31.358  0.00  0.00    -0.286 OA
ENDBRANCH  16  17
BRANCH  16  19
ATOM     19  CB  SER A   3      10.051   6.998  32.996  0.00  0.00    +0.165 C 
BRANCH  19  20
ATOM     20  OG  SER A   3       8.708   6.665  33.308  0.00  0.00    -0.380 OA
ATOM     21  H   SER A   3       8.146   7.478  33.252  0.00  0.00    +0.211 HD
ENDBRANCH  19  20
ENDBRANCH  16  19
ENDBRANCH  13  16
ENDBRANCH   1  12
BRANCH   1  22
ATOM     22  CB  ASN A   2      10.862   3.045  36.628  0.00  0.00    +0.114 C 
BRANCH  22  23
ATOM     23  CG  ASN A   2      11.117   2.258  37.911  0.00  0.00    +0.222 C 
ATOM     24  ND2 ASN A   2      10.045   1.692  38.468  0.00  0.00    -0.329 N 
ATOM     25 HD21 ASN A   2      10.141   1.156  39.354  0.00  0.00    +0.145 HD
ATOM     26 HD22 ASN A   2       9.113   1.786  38.016  0.00  0.00    +0.145 HD
ATOM     27  OD1 ASN A   2      12.250   2.180  38.402  0.00  0.00    -0.275 OA
ENDBRANCH  22  23
ENDBRANCH   1  22
TORSDOF 12
REMARK  Name = ../refined-set-2016/4lm0/4lm0_pocket.pdb
REMARK  135 active torsions:
REMARK  status: ('A' for Active; 'I' for Inactive)
REMARK    1  A    between atoms: _1  and  _3
REMARK    2  A    between atoms: _3  and  _4
REMARK    3  A    between atoms: _3  and  _6
REMARK    4  A    between atoms: _6  and  _7
REMARK    5  A    between atoms: _12  and  _13
REMARK    6  A    between atoms: _15  and  _17
REMARK    7  A    between atoms: _17  and  _18
REMARK    8  A    between atoms: _17  and  _20
REMARK    9  A    between atoms: _20  and  _21
REMARK   10  A    between atoms: _26  and  _28
REMARK   11  A    between atoms: _28  and  _29
REMARK   12  A    between atoms: _28  and  _31
REMARK   13  A    between atoms: _31  and  _32
REMARK   14  A    between atoms: _36  and  NI_327
REMARK   15  A    between atoms: _37  and  _39
REMARK   16  A    between atoms: _39  and  _40
REMARK   17  A    between atoms: _39  and  _42
REMARK   18  A    between atoms: _42  and  _43
REMARK   19  A    between atoms: _48  and  _50
REMARK   20  A    between atoms: _50  and  _51
REMARK   21  A    between atoms: _50  and  _53
REMARK   22  A    between atoms: _53  and  _54
REMARK   23  A    between atoms: _56  and  _58
REMARK   24  A    between atoms: _58  and  _59
REMARK   25  A    between atoms: _58  and  _61
REMARK   26  A    between atoms: _61  and  _62
REMARK   27  A    between atoms: _67  and  _69
REMARK   28  A    between atoms: _69  and  _70
REMARK   29  A    between atoms: _69  and  _72
REMARK   30  A    between atoms: _72  and  _73
REMARK   31  A    between atoms: _75  and  _77
REMARK   32  A    between atoms: _77  and  _78
REMARK   33  A    between atoms: _77  and  _80
REMARK   34  A    between atoms: _80  and  _81
REMARK   35  A    between atoms: _84  and  _86
REMARK   36  A    between atoms: _86  and  _87
REMARK   37  A    between atoms: _86  and  _89
REMARK   38  A    between atoms: _89  and  _90
REMARK   39  A    between atoms: _93  and  _95
REMARK   40  A    between atoms: _95  and  _96
REMARK   41  A    between atoms: _95  and  _98
REMARK   42  A    between atoms: _98  and  _99
REMARK   43  A    between atoms: _102  and  _104
REMARK   44  A    between atoms: _104  and  _105
REMARK   45  A    between atoms: _108  and  _110
REMARK   46  A    between atoms: _110  and  _111
REMARK   47  A    between atoms: _110  and  _113
REMARK   48  A    between atoms: _113  and  _114
REMARK   49  A    between atoms: _120  and  _122
REMARK   50  A    between atoms: _122  and  _123
REMARK   51  A    between atoms: _122  and  _125
REMARK   52  A    between atoms: _125  and  _126
REMARK   53  A    between atoms: _126  and  _128
REMARK   54  A    between atoms: _128  and  NI_327
REMARK   55  A    between atoms: _129  and  _131
REMARK   56  A    between atoms: _131  and  _132
REMARK   57  A    between atoms: _131  and  _134
REMARK   58  A    between atoms: _134  and  _135
REMARK   59  A    between atoms: _138  and  _140
REMARK   60  A    between atoms: _140  and  _141
REMARK   61  A    between atoms: _140  and  _143
REMARK   62  A    between atoms: _143  and  _144
REMARK   63  A    between atoms: _146  and  _148
REMARK   64  A    between atoms: _148  and  _149
REMARK   65  A    between atoms: _148  and  _151
REMARK   66  A    between atoms: _154  and  _156
REMARK   67  A    between atoms: _156  and  _157
REMARK   68  A    between atoms: _160  and  _162
REMARK   69  A    between atoms: _162  and  _163
REMARK   70  A    between atoms: _162  and  _165
REMARK   71  A    between atoms: _165  and  _166
REMARK   72  A    between atoms: _169  and  _171
REMARK   73  A    between atoms: _171  and  _172
REMARK   74  A    between atoms: _171  and  _174
REMARK   75  A    between atoms: _174  and  _175
REMARK   76  A    between atoms: _180  and  _181
REMARK   77  A    between atoms: _183  and  _185
REMARK   78  A    between atoms: _185  and  _186
REMARK   79  A    between atoms: _185  and  _188
REMARK   80  A    between atoms: _188  and  _189
REMARK   81  A    between atoms: _189  and  _190
REMARK   82  A    between atoms: _193  and  _195
REMARK   83  A    between atoms: _195  and  _196
REMARK   84  A    between atoms: _195  and  _198
REMARK   85  A    between atoms: _198  and  _199
REMARK   86  A    between atoms: _205  and  _207
REMARK   87  A    between atoms: _207  and  _208
REMARK   88  A    between atoms: _207  and  _210
REMARK   89  A    between atoms: _210  and  _211
REMARK   90  A    between atoms: _214  and  _216
REMARK   91  A    between atoms: _216  and  _217
REMARK   92  A    between atoms: _216  and  _219
REMARK   93  A    between atoms: _219  and  _220
REMARK   94  A    between atoms: _220  and  _221
REMARK   95  A    between atoms: _223  and  _225
REMARK   96  A    between atoms: _225  and  _226
REMARK   97  A    between atoms: _225  and  _228
REMARK   98  A    between atoms: _228  and  _229
REMARK   99  A    between atoms: _229  and  _230
REMARK  100  A    between atoms: _232  and  _234
REMARK  101  A    between atoms: _234  and  _235
REMARK  102  A    between atoms: _234  and  _237
REMARK  103  A    between atoms: _240  and  _242
REMARK  104  A    between atoms: _242  and  _243
REMARK  105  A    between atoms: _245  and  _247
REMARK  106  A    between atoms: _247  and  _248
REMARK  107  A    between atoms: _247  and  _250
REMARK  108  A    between atoms: _250  and  _251
REMARK  109  A    between atoms: _251  and  _252
REMARK  110  A    between atoms: _257  and  _259
REMARK  111  A    between atoms: _259  and  _260
REMARK  112  A    between atoms: _259  and  _262
REMARK  113  A    between atoms: _262  and  _263
REMARK  114  A    between atoms: _266  and  _268
REMARK  115  A    between atoms: _268  and  _269
REMARK  116  A    between atoms: _271  and  _273
REMARK  117  A    between atoms: _273  and  _274
REMARK  118  A    between atoms: _273  and  _276
REMARK  119  A    between atoms: _276  and  _277
REMARK  120  A    between atoms: _283  and  _285
REMARK  121  A    between atoms: _285  and  _286
REMARK  122  A    between atoms: _285  and  _288
REMARK  123  A    between atoms: _288  and  _289
REMARK  124  A    between atoms: _294  and  _295
REMARK  125  A    between atoms: _297  and  _299
REMARK  126  A    between atoms: _299  and  _300
REMARK  127  A    between atoms: _299  and  _302
REMARK  128  A    between atoms: _305  and  _307
REMARK  129  A    between atoms: _307  and  _308
REMARK  130  A    between atoms: _311  and  _313
REMARK  131  A    between atoms: _313  and  _314
REMARK  132  A    between atoms: _313  and  _316
REMARK  133  A    between atoms: _316  and  _317
REMARK  134  A    between atoms: NI_327  and  _345
REMARK  135  A    between atoms: NI_328  and  _345
REMARK                            x       y       z     vdW  Elec       q    Type
REMARK                         _______ _______ _______ _____ _____    ______ ____
ROOT
ATOM      1  C   ASP A   2       4.768   1.419  42.154  0.00  0.00    +0.241 C 
ATOM      2  O   ASP A   2       3.825   0.616  42.103  0.00  0.00    -0.273 OA
ATOM      3  N   LEU A   3       4.615   2.730  41.939  0.00  0.00    -0.297 N 
ATOM      4  H   LEU A   3       5.438   3.365  41.961  0.00  0.00    +0.150 HD
ENDROOT
BRANCH   1   5
ATOM      5  CA  ASP A   2       6.156   0.912  42.471  0.00  0.00    +0.160 C 
BRANCH   5   8
ATOM      6  C   THR A   1       6.136   1.510  44.820  0.00  0.00    +0.241 C 
ATOM      7  O   THR A   1       6.266   2.726  44.569  0.00  0.00    -0.274 OA
ATOM      8  N   ASP A   2       6.156   0.554  43.893  0.00  0.00    -0.297 N 
ATOM      9  H   ASP A   2       6.172  -0.446  44.178  0.00  0.00    +0.150 HD
BRANCH   6  10
ATOM     10  CA  THR A   1       5.951   1.048  46.277  0.00  0.00    +0.172 C 
BRANCH  10  11
ATOM     11  N   THR A   1       5.716  -0.400  46.396  0.00  0.00    -0.236 NA
ATOM     12  H   THR A   1       6.447  -0.988  46.844  0.00  0.00    +0.142 HD
ENDBRANCH  10  11
BRANCH  10  13
ATOM     13  CB  THR A   1       7.112   1.598  47.157  0.00  0.00    +0.135 C 
ATOM     14  CG2 THR A   1       6.877   1.232  48.643  0.00  0.00    +0.034 C 
BRANCH  13  15
ATOM     15  OG1 THR A   1       8.398   1.066  46.712  0.00  0.00    -0.383 OA
ATOM     16  HG1 THR A   1       8.386   0.078  46.779  0.00  0.00    +0.210 HD
ENDBRANCH  13  15
ENDBRANCH  10  13
ENDBRANCH   6  10
ENDBRANCH   5   8
BRANCH   5  17
ATOM     17  CB  ASP A   2       6.482  -0.310  41.607  0.00  0.00    +0.143 C 
BRANCH  17  18
ATOM     18  CG  ASP A   2       6.520   0.023  40.109  0.00  0.00    +0.367 C 
ATOM     19  OD2 ASP A   2       6.318   1.200  39.729  0.00  0.00    -0.246 OA
ATOM     20  OD1 ASP A   2       6.776  -0.895  39.304  0.00  0.00    -0.246 OA
ENDBRANCH  17  18
ENDBRANCH   5  17
ENDBRANCH   1   5
BRANCH   3  21
ATOM     21  CA  LEU A   3       3.252   3.273  41.667  0.00  0.00    +0.149 C 
BRANCH  21  22
ATOM     22  C   LEU A   3       2.605   2.644  40.435  0.00  0.00    +0.241 C 
ATOM     23  O   LEU A   3       1.385   2.604  40.320  0.00  0.00    -0.273 OA
ATOM     24  N   ALA A   4       3.409   2.122  39.501  0.00  0.00    -0.298 N 
ATOM     25  H   ALA A   4       4.437   2.261  39.572  0.00  0.00    +0.150 HD
BRANCH  24  26
ATOM     26  CA  ALA A   4       2.851   1.348  38.368  0.00  0.00    +0.137 C 
ATOM     27  CB  ALA A   4       3.999   0.785  37.479  0.00  0.00    +0.030 C 
BRANCH  26  28
ATOM     28  C   ALA A   4       1.924   0.211  38.802  0.00  0.00    +0.227 C 
ATOM     29  O   ALA A   4       0.878  -0.045  38.157  0.00  0.00    -0.286 OA
ENDBRANCH  26  28
ENDBRANCH  24  26
ENDBRANCH  21  22
BRANCH  21  30
ATOM     30  CB  LEU A   3       3.228   4.802  41.557  0.00  0.00    +0.029 C 
BRANCH  30  31
ATOM     31  CG  LEU A   3       3.199   5.614  42.848  0.00  0.00    +0.002 C 
ATOM     32  CD2 LEU A   3       1.887   5.353  43.667  0.00  0.00    +0.000 C 
ATOM     33  CD1 LEU A   3       3.362   7.087  42.479  0.00  0.00    +0.000 C 
ENDBRANCH  30  31
ENDBRANCH  21  30
ENDBRANCH   3  21
TORSDOF 14
REMARK  Name = ../refined-set-2016/4lm0/4lm0_pocket.pdb
REMARK  135 active torsions:
REMARK  status: ('A' for Active; 'I' for Inactive)
REMARK    1  A    between atoms: _1  and  _3
REMARK    2  A    between atoms: _3  and  _4
REMARK    3  A    between atoms: _3  and  _6
REMARK    4  A    between atoms: _6  and  _7
REMARK    5  A    between atoms: _12  and  _13
REMARK    6  A    between atoms: _15  and  _17
REMARK    7  A    between atoms: _17  and  _18
REMARK    8  A    between atoms: _17  and  _20
REMARK    9  A    between atoms: _20  and  _21
REMARK   10  A    between atoms: _26  and  _28
REMARK   11  A    between atoms: _28  and  _29
REMARK   12  A    between atoms: _28  and  _31
REMARK   13  A    between atoms: _31  and  _32
REMARK   14  A    between atoms: _36  and  NI_327
REMARK   15  A    between atoms: _37  and  _39
REMARK   16  A    between atoms: _39  and  _40
REMARK   17  A    between atoms: _39  and  _42
REMARK   18  A    between atoms: _42  and  _43
REMARK   19  A    between atoms: _48  and  _50
REMARK   20  A    between atoms: _50  and  _51
REMARK   21  A    between atoms: _50  and  _53
REMARK   22  A    between atoms: _53  and  _54
REMARK   23  A    between atoms: _56  and  _58
REMARK   24  A    between atoms: _58  and  _59
REMARK   25  A    between atoms: _58  and  _61
REMARK   26  A    between atoms: _61  and  _62
REMARK   27  A    between atoms: _67  and  _69
REMARK   28  A    between atoms: _69  and  _70
REMARK   29  A    between atoms: _69  and  _72
REMARK   30  A    between atoms: _72  and  _73
REMARK   31  A    between atoms: _75  and  _77
REMARK   32  A    between atoms: _77  and  _78
REMARK   33  A    between atoms: _77  and  _80
REMARK   34  A    between atoms: _80  and  _81
REMARK   35  A    between atoms: _84  and  _86
REMARK   36  A    between atoms: _86  and  _87
REMARK   37  A    between atoms: _86  and  _89
REMARK   38  A    between atoms: _89  and  _90
REMARK   39  A    between atoms: _93  and  _95
REMARK   40  A    between atoms: _95  and  _96
REMARK   41  A    between atoms: _95  and  _98
REMARK   42  A    between atoms: _98  and  _99
REMARK   43  A    between atoms: _102  and  _104
REMARK   44  A    between atoms: _104  and  _105
REMARK   45  A    between atoms: _108  and  _110
REMARK   46  A    between atoms: _110  and  _111
REMARK   47  A    between atoms: _110  and  _113
REMARK   48  A    between atoms: _113  and  _114
REMARK   49  A    between atoms: _120  and  _122
REMARK   50  A    between atoms: _122  and  _123
REMARK   51  A    between atoms: _122  and  _125
REMARK   52  A    between atoms: _125  and  _126
REMARK   53  A    between atoms: _126  and  _128
REMARK   54  A    between atoms: _128  and  NI_327
REMARK   55  A    between atoms: _129  and  _131
REMARK   56  A    between atoms: _131  and  _132
REMARK   57  A    between atoms: _131  and  _134
REMARK   58  A    between atoms: _134  and  _135
REMARK   59  A    between atoms: _138  and  _140
REMARK   60  A    between atoms: _140  and  _141
REMARK   61  A    between atoms: _140  and  _143
REMARK   62  A    between atoms: _143  and  _144
REMARK   63  A    between atoms: _146  and  _148
REMARK   64  A    between atoms: _148  and  _149
REMARK   65  A    between atoms: _148  and  _151
REMARK   66  A    between atoms: _154  and  _156
REMARK   67  A    between atoms: _156  and  _157
REMARK   68  A    between atoms: _160  and  _162
REMARK   69  A    between atoms: _162  and  _163
REMARK   70  A    between atoms: _162  and  _165
REMARK   71  A    between atoms: _165  and  _166
REMARK   72  A    between atoms: _169  and  _171
REMARK   73  A    between atoms: _171  and  _172
REMARK   74  A    between atoms: _171  and  _174
REMARK   75  A    between atoms: _174  and  _175
REMARK   76  A    between atoms: _180  and  _181
REMARK   77  A    between atoms: _183  and  _185
REMARK   78  A    between atoms: _185  and  _186
REMARK   79  A    between atoms: _185  and  _188
REMARK   80  A    between atoms: _188  and  _189
REMARK   81  A    between atoms: _189  and  _190
REMARK   82  A    between atoms: _193  and  _195
REMARK   83  A    between atoms: _195  and  _196
REMARK   84  A    between atoms: _195  and  _198
REMARK   85  A    between atoms: _198  and  _199
REMARK   86  A    between atoms: _205  and  _207
REMARK   87  A    between atoms: _207  and  _208
REMARK   88  A    between atoms: _207  and  _210
REMARK   89  A    between atoms: _210  and  _211
REMARK   90  A    between atoms: _214  and  _216
REMARK   91  A    between atoms: _216  and  _217
REMARK   92  A    between atoms: _216  and  _219
REMARK   93  A    between atoms: _219  and  _220
REMARK   94  A    between atoms: _220  and  _221
REMARK   95  A    between atoms: _223  and  _225
REMARK   96  A    between atoms: _225  and  _226
REMARK   97  A    between atoms: _225  and  _228
REMARK   98  A    between atoms: _228  and  _229
REMARK   99  A    between atoms: _229  and  _230
REMARK  100  A    between atoms: _232  and  _234
REMARK  101  A    between atoms: _234  and  _235
REMARK  102  A    between atoms: _234  and  _237
REMARK  103  A    between atoms: _240  and  _242
REMARK  104  A    between atoms: _242  and  _243
REMARK  105  A    between atoms: _245  and  _247
REMARK  106  A    between atoms: _247  and  _248
REMARK  107  A    between atoms: _247  and  _250
REMARK  108  A    between atoms: _250  and  _251
REMARK  109  A    between atoms: _251  and  _252
REMARK  110  A    between atoms: _257  and  _259
REMARK  111  A    between atoms: _259  and  _260
REMARK  112  A    between atoms: _259  and  _262
REMARK  113  A    between atoms: _262  and  _263
REMARK  114  A    between atoms: _266  and  _268
REMARK  115  A    between atoms: _268  and  _269
REMARK  116  A    between atoms: _271  and  _273
REMARK  117  A    between atoms: _273  and  _274
REMARK  118  A    between atoms: _273  and  _276
REMARK  119  A    between atoms: _276  and  _277
REMARK  120  A    between atoms: _283  and  _285
REMARK  121  A    between atoms: _285  and  _286
REMARK  122  A    between atoms: _285  and  _288
REMARK  123  A    between atoms: _288  and  _289
REMARK  124  A    between atoms: _294  and  _295
REMARK  125  A    between atoms: _297  and  _299
REMARK  126  A    between atoms: _299  and  _300
REMARK  127  A    between atoms: _299  and  _302
REMARK  128  A    between atoms: _305  and  _307
REMARK  129  A    between atoms: _307  and  _308
REMARK  130  A    between atoms: _311  and  _313
REMARK  131  A    between atoms: _313  and  _314
REMARK  132  A    between atoms: _313  and  _316
REMARK  133  A    between atoms: _316  and  _317
REMARK  134  A    between atoms: NI_327  and  _345
REMARK  135  A    between atoms: NI_328  and  _345
REMARK                            x       y       z     vdW  Elec       q    Type
REMARK                         _______ _______ _______ _____ _____    ______ ____
ROOT
ATOM      1  CB  PHE A   1      -3.243   1.931  38.681  0.00  0.00    +0.051 C 
ENDROOT
BRANCH   1   2
ATOM      2  CG  PHE A   1      -2.577   3.263  38.668  0.00  0.00    -0.020 A 
ATOM      3  CD2 PHE A   1      -3.293   4.411  38.991  0.00  0.00    -0.004 A 
ATOM      4  CE2 PHE A   1      -2.674   5.656  39.019  0.00  0.00    -0.000 A 
ATOM      5  CZ  PHE A   1      -1.286   5.762  38.730  0.00  0.00    -0.000 A 
ATOM      6  CE1 PHE A   1      -0.573   4.629  38.424  0.00  0.00    -0.000 A 
ATOM      7  CD1 PHE A   1      -1.212   3.374  38.388  0.00  0.00    -0.004 A 
ENDBRANCH   1   2
BRANCH   1   8
ATOM      8  CA  PHE A   1      -3.382   1.338  40.097  0.00  0.00    +0.137 C 
BRANCH   8   9
ATOM      9  N   PHE A   1      -2.050   1.139  40.749  0.00  0.00    -0.239 NA
ATOM     10  H   PHE A   1      -1.174   1.345  40.227  0.00  0.00    +0.142 HD
ENDBRANCH   8   9
BRANCH   8  11
ATOM     11  C   PHE A   1      -4.198   0.053  40.074  0.00  0.00    +0.224 C 
ATOM     12  O   PHE A   1      -5.409   0.065  40.410  0.00  0.00    -0.287 OA
ENDBRANCH   8  11
ENDBRANCH   1   8
TORSDOF 4
REMARK  Name = ../refined-set-2016/4lm0/4lm0_pocket.pdb
REMARK  135 active torsions:
REMARK  status: ('A' for Active; 'I' for Inactive)
REMARK    1  A    between atoms: _1  and  _3
REMARK    2  A    between atoms: _3  and  _4
REMARK    3  A    between atoms: _3  and  _6
REMARK    4  A    between atoms: _6  and  _7
REMARK    5  A    between atoms: _12  and  _13
REMARK    6  A    between atoms: _15  and  _17
REMARK    7  A    between atoms: _17  and  _18
REMARK    8  A    between atoms: _17  and  _20
REMARK    9  A    between atoms: _20  and  _21
REMARK   10  A    between atoms: _26  and  _28
REMARK   11  A    between atoms: _28  and  _29
REMARK   12  A    between atoms: _28  and  _31
REMARK   13  A    between atoms: _31  and  _32
REMARK   14  A    between atoms: _36  and  NI_327
REMARK   15  A    between atoms: _37  and  _39
REMARK   16  A    between atoms: _39  and  _40
REMARK   17  A    between atoms: _39  and  _42
REMARK   18  A    between atoms: _42  and  _43
REMARK   19  A    between atoms: _48  and  _50
REMARK   20  A    between atoms: _50  and  _51
REMARK   21  A    between atoms: _50  and  _53
REMARK   22  A    between atoms: _53  and  _54
REMARK   23  A    between atoms: _56  and  _58
REMARK   24  A    between atoms: _58  and  _59
REMARK   25  A    between atoms: _58  and  _61
REMARK   26  A    between atoms: _61  and  _62
REMARK   27  A    between atoms: _67  and  _69
REMARK   28  A    between atoms: _69  and  _70
REMARK   29  A    between atoms: _69  and  _72
REMARK   30  A    between atoms: _72  and  _73
REMARK   31  A    between atoms: _75  and  _77
REMARK   32  A    between atoms: _77  and  _78
REMARK   33  A    between atoms: _77  and  _80
REMARK   34  A    between atoms: _80  and  _81
REMARK   35  A    between atoms: _84  and  _86
REMARK   36  A    between atoms: _86  and  _87
REMARK   37  A    between atoms: _86  and  _89
REMARK   38  A    between atoms: _89  and  _90
REMARK   39  A    between atoms: _93  and  _95
REMARK   40  A    between atoms: _95  and  _96
REMARK   41  A    between atoms: _95  and  _98
REMARK   42  A    between atoms: _98  and  _99
REMARK   43  A    between atoms: _102  and  _104
REMARK   44  A    between atoms: _104  and  _105
REMARK   45  A    between atoms: _108  and  _110
REMARK   46  A    between atoms: _110  and  _111
REMARK   47  A    between atoms: _110  and  _113
REMARK   48  A    between atoms: _113  and  _114
REMARK   49  A    between atoms: _120  and  _122
REMARK   50  A    between atoms: _122  and  _123
REMARK   51  A    between atoms: _122  and  _125
REMARK   52  A    between atoms: _125  and  _126
REMARK   53  A    between atoms: _126  and  _128
REMARK   54  A    between atoms: _128  and  NI_327
REMARK   55  A    between atoms: _129  and  _131
REMARK   56  A    between atoms: _131  and  _132
REMARK   57  A    between atoms: _131  and  _134
REMARK   58  A    between atoms: _134  and  _135
REMARK   59  A    between atoms: _138  and  _140
REMARK   60  A    between atoms: _140  and  _141
REMARK   61  A    between atoms: _140  and  _143
REMARK   62  A    between atoms: _143  and  _144
REMARK   63  A    between atoms: _146  and  _148
REMARK   64  A    between atoms: _148  and  _149
REMARK   65  A    between atoms: _148  and  _151
REMARK   66  A    between atoms: _154  and  _156
REMARK   67  A    between atoms: _156  and  _157
REMARK   68  A    between atoms: _160  and  _162
REMARK   69  A    between atoms: _162  and  _163
REMARK   70  A    between atoms: _162  and  _165
REMARK   71  A    between atoms: _165  and  _166
REMARK   72  A    between atoms: _169  and  _171
REMARK   73  A    between atoms: _171  and  _172
REMARK   74  A    between atoms: _171  and  _174
REMARK   75  A    between atoms: _174  and  _175
REMARK   76  A    between atoms: _180  and  _181
REMARK   77  A    between atoms: _183  and  _185
REMARK   78  A    between atoms: _185  and  _186
REMARK   79  A    between atoms: _185  and  _188
REMARK   80  A    between atoms: _188  and  _189
REMARK   81  A    between atoms: _189  and  _190
REMARK   82  A    between atoms: _193  and  _195
REMARK   83  A    between atoms: _195  and  _196
REMARK   84  A    between atoms: _195  and  _198
REMARK   85  A    between atoms: _198  and  _199
REMARK   86  A    between atoms: _205  and  _207
REMARK   87  A    between atoms: _207  and  _208
REMARK   88  A    between atoms: _207  and  _210
REMARK   89  A    between atoms: _210  and  _211
REMARK   90  A    between atoms: _214  and  _216
REMARK   91  A    between atoms: _216  and  _217
REMARK   92  A    between atoms: _216  and  _219
REMARK   93  A    between atoms: _219  and  _220
REMARK   94  A    between atoms: _220  and  _221
REMARK   95  A    between atoms: _223  and  _225
REMARK   96  A    between atoms: _225  and  _226
REMARK   97  A    between atoms: _225  and  _228
REMARK   98  A    between atoms: _228  and  _229
REMARK   99  A    between atoms: _229  and  _230
REMARK  100  A    between atoms: _232  and  _234
REMARK  101  A    between atoms: _234  and  _235
REMARK  102  A    between atoms: _234  and  _237
REMARK  103  A    between atoms: _240  and  _242
REMARK  104  A    between atoms: _242  and  _243
REMARK  105  A    between atoms: _245  and  _247
REMARK  106  A    between atoms: _247  and  _248
REMARK  107  A    between atoms: _247  and  _250
REMARK  108  A    between atoms: _250  and  _251
REMARK  109  A    between atoms: _251  and  _252
REMARK  110  A    between atoms: _257  and  _259
REMARK  111  A    between atoms: _259  and  _260
REMARK  112  A    between atoms: _259  and  _262
REMARK  113  A    between atoms: _262  and  _263
REMARK  114  A    between atoms: _266  and  _268
REMARK  115  A    between atoms: _268  and  _269
REMARK  116  A    between atoms: _271  and  _273
REMARK  117  A    between atoms: _273  and  _274
REMARK  118  A    between atoms: _273  and  _276
REMARK  119  A    between atoms: _276  and  _277
REMARK  120  A    between atoms: _283  and  _285
REMARK  121  A    between atoms: _285  and  _286
REMARK  122  A    between atoms: _285  and  _288
REMARK  123  A    between atoms: _288  and  _289
REMARK  124  A    between atoms: _294  and  _295
REMARK  125  A    between atoms: _297  and  _299
REMARK  126  A    between atoms: _299  and  _300
REMARK  127  A    between atoms: _299  and  _302
REMARK  128  A    between atoms: _305  and  _307
REMARK  129  A    between atoms: _307  and  _308
REMARK  130  A    between atoms: _311  and  _313
REMARK  131  A    between atoms: _313  and  _314
REMARK  132  A    between atoms: _313  and  _316
REMARK  133  A    between atoms: _316  and  _317
REMARK  134  A    between atoms: NI_327  and  _345
REMARK  135  A    between atoms: NI_328  and  _345
REMARK                            x       y       z     vdW  Elec       q    Type
REMARK                         _______ _______ _______ _____ _____    ______ ____
ROOT
ATOM      1  C   SER A   1       2.259  14.877  51.963  0.00  0.00    +0.241 C 
ATOM      2  O   SER A   1       2.044  16.005  52.434  0.00  0.00    -0.274 OA
ATOM      3  N   VAL A   2       1.384  14.230  51.183  0.00  0.00    -0.298 N 
ATOM      4  H   VAL A   2       1.614  13.291  50.799  0.00  0.00    +0.150 HD
ENDROOT
BRANCH   1   5
ATOM      5  CA  SER A   1       3.582  14.172  52.285  0.00  0.00    +0.174 C 
BRANCH   5   6
ATOM      6  N   SER A   1       3.447  12.714  52.374  0.00  0.00    -0.236 NA
ATOM      7  H   SER A   1       4.123  12.088  51.892  0.00  0.00    +0.142 HD
ENDBRANCH   5   6
BRANCH   5   8
ATOM      8  CB  SER A   1       4.620  14.597  51.219  0.00  0.00    +0.163 C 
BRANCH   8   9
ATOM      9  OG  SER A   1       4.066  14.472  49.911  0.00  0.00    -0.380 OA
ATOM     10  H   SER A   1       3.806  13.530  49.752  0.00  0.00    +0.211 HD
ENDBRANCH   8   9
ENDBRANCH   5   8
ENDBRANCH   1   5
BRANCH   3  11
ATOM     11  CA  VAL A   2       0.108  14.858  50.880  0.00  0.00    +0.137 C 
BRANCH  11  12
ATOM     12  CB  VAL A   2      -0.594  14.266  49.598  0.00  0.00    +0.026 C 
ATOM     13  CG2 VAL A   2      -1.142  12.863  49.874  0.00  0.00    +0.002 C 
ATOM     14  CG1 VAL A   2       0.379  14.263  48.397  0.00  0.00    +0.002 C 
ENDBRANCH  11  12
BRANCH  11  15
ATOM     15  C   VAL A   2      -0.901  14.844  51.993  0.00  0.00    +0.227 C 
ATOM     16  O   VAL A   2      -1.976  15.376  51.783  0.00  0.00    -0.286 OA
ENDBRANCH  11  15
ENDBRANCH   3  11
TORSDOF 7
REMARK  Name = ../refined-set-2016/4lm0/4lm0_pocket.pdb
REMARK  135 active torsions:
REMARK  status: ('A' for Active; 'I' for Inactive)
REMARK    1  A    between atoms: _1  and  _3
REMARK    2  A    between atoms: _3  and  _4
REMARK    3  A    between atoms: _3  and  _6
REMARK    4  A    between atoms: _6  and  _7
REMARK    5  A    between atoms: _12  and  _13
REMARK    6  A    between atoms: _15  and  _17
REMARK    7  A    between atoms: _17  and  _18
REMARK    8  A    between atoms: _17  and  _20
REMARK    9  A    between atoms: _20  and  _21
REMARK   10  A    between atoms: _26  and  _28
REMARK   11  A    between atoms: _28  and  _29
REMARK   12  A    between atoms: _28  and  _31
REMARK   13  A    between atoms: _31  and  _32
REMARK   14  A    between atoms: _36  and  NI_327
REMARK   15  A    between atoms: _37  and  _39
REMARK   16  A    between atoms: _39  and  _40
REMARK   17  A    between atoms: _39  and  _42
REMARK   18  A    between atoms: _42  and  _43
REMARK   19  A    between atoms: _48  and  _50
REMARK   20  A    between atoms: _50  and  _51
REMARK   21  A    between atoms: _50  and  _53
REMARK   22  A    between atoms: _53  and  _54
REMARK   23  A    between atoms: _56  and  _58
REMARK   24  A    between atoms: _58  and  _59
REMARK   25  A    between atoms: _58  and  _61
REMARK   26  A    between atoms: _61  and  _62
REMARK   27  A    between atoms: _67  and  _69
REMARK   28  A    between atoms: _69  and  _70
REMARK   29  A    between atoms: _69  and  _72
REMARK   30  A    between atoms: _72  and  _73
REMARK   31  A    between atoms: _75  and  _77
REMARK   32  A    between atoms: _77  and  _78
REMARK   33  A    between atoms: _77  and  _80
REMARK   34  A    between atoms: _80  and  _81
REMARK   35  A    between atoms: _84  and  _86
REMARK   36  A    between atoms: _86  and  _87
REMARK   37  A    between atoms: _86  and  _89
REMARK   38  A    between atoms: _89  and  _90
REMARK   39  A    between atoms: _93  and  _95
REMARK   40  A    between atoms: _95  and  _96
REMARK   41  A    between atoms: _95  and  _98
REMARK   42  A    between atoms: _98  and  _99
REMARK   43  A    between atoms: _102  and  _104
REMARK   44  A    between atoms: _104  and  _105
REMARK   45  A    between atoms: _108  and  _110
REMARK   46  A    between atoms: _110  and  _111
REMARK   47  A    between atoms: _110  and  _113
REMARK   48  A    between atoms: _113  and  _114
REMARK   49  A    between atoms: _120  and  _122
REMARK   50  A    between atoms: _122  and  _123
REMARK   51  A    between atoms: _122  and  _125
REMARK   52  A    between atoms: _125  and  _126
REMARK   53  A    between atoms: _126  and  _128
REMARK   54  A    between atoms: _128  and  NI_327
REMARK   55  A    between atoms: _129  and  _131
REMARK   56  A    between atoms: _131  and  _132
REMARK   57  A    between atoms: _131  and  _134
REMARK   58  A    between atoms: _134  and  _135
REMARK   59  A    between atoms: _138  and  _140
REMARK   60  A    between atoms: _140  and  _141
REMARK   61  A    between atoms: _140  and  _143
REMARK   62  A    between atoms: _143  and  _144
REMARK   63  A    between atoms: _146  and  _148
REMARK   64  A    between atoms: _148  and  _149
REMARK   65  A    between atoms: _148  and  _151
REMARK   66  A    between atoms: _154  and  _156
REMARK   67  A    between atoms: _156  and  _157
REMARK   68  A    between atoms: _160  and  _162
REMARK   69  A    between atoms: _162  and  _163
REMARK   70  A    between atoms: _162  and  _165
REMARK   71  A    between atoms: _165  and  _166
REMARK   72  A    between atoms: _169  and  _171
REMARK   73  A    between atoms: _171  and  _172
REMARK   74  A    between atoms: _171  and  _174
REMARK   75  A    between atoms: _174  and  _175
REMARK   76  A    between atoms: _180  and  _181
REMARK   77  A    between atoms: _183  and  _185
REMARK   78  A    between atoms: _185  and  _186
REMARK   79  A    between atoms: _185  and  _188
REMARK   80  A    between atoms: _188  and  _189
REMARK   81  A    between atoms: _189  and  _190
REMARK   82  A    between atoms: _193  and  _195
REMARK   83  A    between atoms: _195  and  _196
REMARK   84  A    between atoms: _195  and  _198
REMARK   85  A    between atoms: _198  and  _199
REMARK   86  A    between atoms: _205  and  _207
REMARK   87  A    between atoms: _207  and  _208
REMARK   88  A    between atoms: _207  and  _210
REMARK   89  A    between atoms: _210  and  _211
REMARK   90  A    between atoms: _214  and  _216
REMARK   91  A    between atoms: _216  and  _217
REMARK   92  A    between atoms: _216  and  _219
REMARK   93  A    between atoms: _219  and  _220
REMARK   94  A    between atoms: _220  and  _221
REMARK   95  A    between atoms: _223  and  _225
REMARK   96  A    between atoms: _225  and  _226
REMARK   97  A    between atoms: _225  and  _228
REMARK   98  A    between atoms: _228  and  _229
REMARK   99  A    between atoms: _229  and  _230
REMARK  100  A    between atoms: _232  and  _234
REMARK  101  A    between atoms: _234  and  _235
REMARK  102  A    between atoms: _234  and  _237
REMARK  103  A    between atoms: _240  and  _242
REMARK  104  A    between atoms: _242  and  _243
REMARK  105  A    between atoms: _245  and  _247
REMARK  106  A    between atoms: _247  and  _248
REMARK  107  A    between atoms: _247  and  _250
REMARK  108  A    between atoms: _250  and  _251
REMARK  109  A    between atoms: _251  and  _252
REMARK  110  A    between atoms: _257  and  _259
REMARK  111  A    between atoms: _259  and  _260
REMARK  112  A    between atoms: _259  and  _262
REMARK  113  A    between atoms: _262  and  _263
REMARK  114  A    between atoms: _266  and  _268
REMARK  115  A    between atoms: _268  and  _269
REMARK  116  A    between atoms: _271  and  _273
REMARK  117  A    between atoms: _273  and  _274
REMARK  118  A    between atoms: _273  and  _276
REMARK  119  A    between atoms: _276  and  _277
REMARK  120  A    between atoms: _283  and  _285
REMARK  121  A    between atoms: _285  and  _286
REMARK  122  A    between atoms: _285  and  _288
REMARK  123  A    between atoms: _288  and  _289
REMARK  124  A    between atoms: _294  and  _295
REMARK  125  A    between atoms: _297  and  _299
REMARK  126  A    between atoms: _299  and  _300
REMARK  127  A    between atoms: _299  and  _302
REMARK  128  A    between atoms: _305  and  _307
REMARK  129  A    between atoms: _307  and  _308
REMARK  130  A    between atoms: _311  and  _313
REMARK  131  A    between atoms: _313  and  _314
REMARK  132  A    between atoms: _313  and  _316
REMARK  133  A    between atoms: _316  and  _317
REMARK  134  A    between atoms: NI_327  and  _345
REMARK  135  A    between atoms: NI_328  and  _345
REMARK                            x       y       z     vdW  Elec       q    Type
REMARK                         _______ _______ _______ _____ _____    ______ ____
ROOT
ATOM      1  CA  ALA A   1       6.464  19.336  46.654  0.00  0.00    +0.133 C 
ATOM      2  CB  ALA A   1       5.086  20.009  46.282  0.00  0.00    +0.027 C 
ENDROOT
BRANCH   1   3
ATOM      3  N   ALA A   1       6.644  19.279  48.102  0.00  0.00    -0.239 NA
ATOM      4  H   ALA A   1       5.918  19.683  48.727  0.00  0.00    +0.142 HD
ENDBRANCH   1   3
BRANCH   1   5
ATOM      5  C   ALA A   1       7.642  20.050  45.972  0.00  0.00    +0.224 C 
ATOM      6  O   ALA A   1       8.117  19.604  44.932  0.00  0.00    -0.287 OA
ENDBRANCH   1   5
TORSDOF 2
REMARK  Name = ../refined-set-2016/4lm0/4lm0_pocket.pdb
REMARK  135 active torsions:
REMARK  status: ('A' for Active; 'I' for Inactive)
REMARK    1  A    between atoms: _1  and  _3
REMARK    2  A    between atoms: _3  and  _4
REMARK    3  A    between atoms: _3  and  _6
REMARK    4  A    between atoms: _6  and  _7
REMARK    5  A    between atoms: _12  and  _13
REMARK    6  A    between atoms: _15  and  _17
REMARK    7  A    between atoms: _17  and  _18
REMARK    8  A    between atoms: _17  and  _20
REMARK    9  A    between atoms: _20  and  _21
REMARK   10  A    between atoms: _26  and  _28
REMARK   11  A    between atoms: _28  and  _29
REMARK   12  A    between atoms: _28  and  _31
REMARK   13  A    between atoms: _31  and  _32
REMARK   14  A    between atoms: _36  and  NI_327
REMARK   15  A    between atoms: _37  and  _39
REMARK   16  A    between atoms: _39  and  _40
REMARK   17  A    between atoms: _39  and  _42
REMARK   18  A    between atoms: _42  and  _43
REMARK   19  A    between atoms: _48  and  _50
REMARK   20  A    between atoms: _50  and  _51
REMARK   21  A    between atoms: _50  and  _53
REMARK   22  A    between atoms: _53  and  _54
REMARK   23  A    between atoms: _56  and  _58
REMARK   24  A    between atoms: _58  and  _59
REMARK   25  A    between atoms: _58  and  _61
REMARK   26  A    between atoms: _61  and  _62
REMARK   27  A    between atoms: _67  and  _69
REMARK   28  A    between atoms: _69  and  _70
REMARK   29  A    between atoms: _69  and  _72
REMARK   30  A    between atoms: _72  and  _73
REMARK   31  A    between atoms: _75  and  _77
REMARK   32  A    between atoms: _77  and  _78
REMARK   33  A    between atoms: _77  and  _80
REMARK   34  A    between atoms: _80  and  _81
REMARK   35  A    between atoms: _84  and  _86
REMARK   36  A    between atoms: _86  and  _87
REMARK   37  A    between atoms: _86  and  _89
REMARK   38  A    between atoms: _89  and  _90
REMARK   39  A    between atoms: _93  and  _95
REMARK   40  A    between atoms: _95  and  _96
REMARK   41  A    between atoms: _95  and  _98
REMARK   42  A    between atoms: _98  and  _99
REMARK   43  A    between atoms: _102  and  _104
REMARK   44  A    between atoms: _104  and  _105
REMARK   45  A    between atoms: _108  and  _110
REMARK   46  A    between atoms: _110  and  _111
REMARK   47  A    between atoms: _110  and  _113
REMARK   48  A    between atoms: _113  and  _114
REMARK   49  A    between atoms: _120  and  _122
REMARK   50  A    between atoms: _122  and  _123
REMARK   51  A    between atoms: _122  and  _125
REMARK   52  A    between atoms: _125  and  _126
REMARK   53  A    between atoms: _126  and  _128
REMARK   54  A    between atoms: _128  and  NI_327
REMARK   55  A    between atoms: _129  and  _131
REMARK   56  A    between atoms: _131  and  _132
REMARK   57  A    between atoms: _131  and  _134
REMARK   58  A    between atoms: _134  and  _135
REMARK   59  A    between atoms: _138  and  _140
REMARK   60  A    between atoms: _140  and  _141
REMARK   61  A    between atoms: _140  and  _143
REMARK   62  A    between atoms: _143  and  _144
REMARK   63  A    between atoms: _146  and  _148
REMARK   64  A    between atoms: _148  and  _149
REMARK   65  A    between atoms: _148  and  _151
REMARK   66  A    between atoms: _154  and  _156
REMARK   67  A    between atoms: _156  and  _157
REMARK   68  A    between atoms: _160  and  _162
REMARK   69  A    between atoms: _162  and  _163
REMARK   70  A    between atoms: _162  and  _165
REMARK   71  A    between atoms: _165  and  _166
REMARK   72  A    between atoms: _169  and  _171
REMARK   73  A    between atoms: _171  and  _172
REMARK   74  A    between atoms: _171  and  _174
REMARK   75  A    between atoms: _174  and  _175
REMARK   76  A    between atoms: _180  and  _181
REMARK   77  A    between atoms: _183  and  _185
REMARK   78  A    between atoms: _185  and  _186
REMARK   79  A    between atoms: _185  and  _188
REMARK   80  A    between atoms: _188  and  _189
REMARK   81  A    between atoms: _189  and  _190
REMARK   82  A    between atoms: _193  and  _195
REMARK   83  A    between atoms: _195  and  _196
REMARK   84  A    between atoms: _195  and  _198
REMARK   85  A    between atoms: _198  and  _199
REMARK   86  A    between atoms: _205  and  _207
REMARK   87  A    between atoms: _207  and  _208
REMARK   88  A    between atoms: _207  and  _210
REMARK   89  A    between atoms: _210  and  _211
REMARK   90  A    between atoms: _214  and  _216
REMARK   91  A    between atoms: _216  and  _217
REMARK   92  A    between atoms: _216  and  _219
REMARK   93  A    between atoms: _219  and  _220
REMARK   94  A    between atoms: _220  and  _221
REMARK   95  A    between atoms: _223  and  _225
REMARK   96  A    between atoms: _225  and  _226
REMARK   97  A    between atoms: _225  and  _228
REMARK   98  A    between atoms: _228  and  _229
REMARK   99  A    between atoms: _229  and  _230
REMARK  100  A    between atoms: _232  and  _234
REMARK  101  A    between atoms: _234  and  _235
REMARK  102  A    between atoms: _234  and  _237
REMARK  103  A    between atoms: _240  and  _242
REMARK  104  A    between atoms: _242  and  _243
REMARK  105  A    between atoms: _245  and  _247
REMARK  106  A    between atoms: _247  and  _248
REMARK  107  A    between atoms: _247  and  _250
REMARK  108  A    between atoms: _250  and  _251
REMARK  109  A    between atoms: _251  and  _252
REMARK  110  A    between atoms: _257  and  _259
REMARK  111  A    between atoms: _259  and  _260
REMARK  112  A    between atoms: _259  and  _262
REMARK  113  A    between atoms: _262  and  _263
REMARK  114  A    between atoms: _266  and  _268
REMARK  115  A    between atoms: _268  and  _269
REMARK  116  A    between atoms: _271  and  _273
REMARK  117  A    between atoms: _273  and  _274
REMARK  118  A    between atoms: _273  and  _276
REMARK  119  A    between atoms: _276  and  _277
REMARK  120  A    between atoms: _283  and  _285
REMARK  121  A    between atoms: _285  and  _286
REMARK  122  A    between atoms: _285  and  _288
REMARK  123  A    between atoms: _288  and  _289
REMARK  124  A    between atoms: _294  and  _295
REMARK  125  A    between atoms: _297  and  _299
REMARK  126  A    between atoms: _299  and  _300
REMARK  127  A    between atoms: _299  and  _302
REMARK  128  A    between atoms: _305  and  _307
REMARK  129  A    between atoms: _307  and  _308
REMARK  130  A    between atoms: _311  and  _313
REMARK  131  A    between atoms: _313  and  _314
REMARK  132  A    between atoms: _313  and  _316
REMARK  133  A    between atoms: _316  and  _317
REMARK  134  A    between atoms: NI_327  and  _345
REMARK  135  A    between atoms: NI_328  and  _345
REMARK                            x       y       z     vdW  Elec       q    Type
REMARK                         _______ _______ _______ _____ _____    ______ ____
ROOT
ATOM      1  CA  TYR A   2      10.063  18.819  41.666  0.00  0.00    +0.141 C 
ENDROOT
BRANCH   1   3
ATOM      2  C   ILE A   1      10.307  16.959  43.211  0.00  0.00    +0.238 C 
ATOM      3  N   TYR A   2       9.844  18.182  42.964  0.00  0.00    -0.298 N 
ATOM      4  H   TYR A   2       9.320  18.691  43.704  0.00  0.00    +0.150 HD
ATOM      5  O   ILE A   1      10.985  16.326  42.378  0.00  0.00    -0.274 OA
BRANCH   2   6
ATOM      6  CA  ILE A   1       9.975  16.382  44.606  0.00  0.00    +0.145 C 
BRANCH   6   7
ATOM      7  N   ILE A   1      10.369  17.349  45.640  0.00  0.00    -0.238 NA
ATOM      8  H   ILE A   1       9.667  17.633  46.352  0.00  0.00    +0.142 HD
ENDBRANCH   6   7
BRANCH   6   9
ATOM      9  CB  ILE A   1       8.408  16.134  44.726  0.00  0.00    +0.025 C 
ATOM     10  CG2 ILE A   1       7.872  15.425  43.529  0.00  0.00    +0.002 C 
BRANCH   9  11
ATOM     11  CG1 ILE A   1       8.096  15.383  46.034  0.00  0.00    +0.002 C 
ATOM     12  CD1 ILE A   1       6.580  15.426  46.511  0.00  0.00    +0.000 C 
ENDBRANCH   9  11
ENDBRANCH   6   9
ENDBRANCH   2   6
ENDBRANCH   1   3
BRANCH   1  13
ATOM     13  C   TYR A   2      11.514  19.145  41.372  0.00  0.00    +0.227 C 
ATOM     14  O   TYR A   2      11.897  19.067  40.226  0.00  0.00    -0.286 OA
ENDBRANCH   1  13
BRANCH   1  15
ATOM     15  CB  TYR A   2       9.181  20.042  41.483  0.00  0.00    +0.054 C 
BRANCH  15  16
ATOM     16  CG  TYR A   2       7.816  19.635  40.994  0.00  0.00    -0.020 A 
ATOM     17  CD2 TYR A   2       6.799  19.327  41.900  0.00  0.00    -0.001 A 
ATOM     18  CE2 TYR A   2       5.532  18.922  41.449  0.00  0.00    +0.036 A 
ATOM     19  CZ  TYR A   2       5.293  18.828  40.077  0.00  0.00    +0.134 A 
ATOM     20  CE1 TYR A   2       6.299  19.086  39.161  0.00  0.00    +0.036 A 
ATOM     21  CD1 TYR A   2       7.555  19.486  39.624  0.00  0.00    -0.001 A 
BRANCH  19  22
ATOM     22  OH  TYR A   2       4.057  18.439  39.666  0.00  0.00    -0.506 OA
ATOM     23  HH  TYR A   2       3.476  18.302  40.456  0.00  0.00    +0.292 HD
ENDBRANCH  19  22
ENDBRANCH  15  16
ENDBRANCH   1  15
TORSDOF 9
REMARK  Name = ../refined-set-2016/4lm0/4lm0_pocket.pdb
REMARK  135 active torsions:
REMARK  status: ('A' for Active; 'I' for Inactive)
REMARK    1  A    between atoms: _1  and  _3
REMARK    2  A    between atoms: _3  and  _4
REMARK    3  A    between atoms: _3  and  _6
REMARK    4  A    between atoms: _6  and  _7
REMARK    5  A    between atoms: _12  and  _13
REMARK    6  A    between atoms: _15  and  _17
REMARK    7  A    between atoms: _17  and  _18
REMARK    8  A    between atoms: _17  and  _20
REMARK    9  A    between atoms: _20  and  _21
REMARK   10  A    between atoms: _26  and  _28
REMARK   11  A    between atoms: _28  and  _29
REMARK   12  A    between atoms: _28  and  _31
REMARK   13  A    between atoms: _31  and  _32
REMARK   14  A    between atoms: _36  and  NI_327
REMARK   15  A    between atoms: _37  and  _39
REMARK   16  A    between atoms: _39  and  _40
REMARK   17  A    between atoms: _39  and  _42
REMARK   18  A    between atoms: _42  and  _43
REMARK   19  A    between atoms: _48  and  _50
REMARK   20  A    between atoms: _50  and  _51
REMARK   21  A    between atoms: _50  and  _53
REMARK   22  A    between atoms: _53  and  _54
REMARK   23  A    between atoms: _56  and  _58
REMARK   24  A    between atoms: _58  and  _59
REMARK   25  A    between atoms: _58  and  _61
REMARK   26  A    between atoms: _61  and  _62
REMARK   27  A    between atoms: _67  and  _69
REMARK   28  A    between atoms: _69  and  _70
REMARK   29  A    between atoms: _69  and  _72
REMARK   30  A    between atoms: _72  and  _73
REMARK   31  A    between atoms: _75  and  _77
REMARK   32  A    between atoms: _77  and  _78
REMARK   33  A    between atoms: _77  and  _80
REMARK   34  A    between atoms: _80  and  _81
REMARK   35  A    between atoms: _84  and  _86
REMARK   36  A    between atoms: _86  and  _87
REMARK   37  A    between atoms: _86  and  _89
REMARK   38  A    between atoms: _89  and  _90
REMARK   39  A    between atoms: _93  and  _95
REMARK   40  A    between atoms: _95  and  _96
REMARK   41  A    between atoms: _95  and  _98
REMARK   42  A    between atoms: _98  and  _99
REMARK   43  A    between atoms: _102  and  _104
REMARK   44  A    between atoms: _104  and  _105
REMARK   45  A    between atoms: _108  and  _110
REMARK   46  A    between atoms: _110  and  _111
REMARK   47  A    between atoms: _110  and  _113
REMARK   48  A    between atoms: _113  and  _114
REMARK   49  A    between atoms: _120  and  _122
REMARK   50  A    between atoms: _122  and  _123
REMARK   51  A    between atoms: _122  and  _125
REMARK   52  A    between atoms: _125  and  _126
REMARK   53  A    between atoms: _126  and  _128
REMARK   54  A    between atoms: _128  and  NI_327
REMARK   55  A    between atoms: _129  and  _131
REMARK   56  A    between atoms: _131  and  _132
REMARK   57  A    between atoms: _131  and  _134
REMARK   58  A    between atoms: _134  and  _135
REMARK   59  A    between atoms: _138  and  _140
REMARK   60  A    between atoms: _140  and  _141
REMARK   61  A    between atoms: _140  and  _143
REMARK   62  A    between atoms: _143  and  _144
REMARK   63  A    between atoms: _146  and  _148
REMARK   64  A    between atoms: _148  and  _149
REMARK   65  A    between atoms: _148  and  _151
REMARK   66  A    between atoms: _154  and  _156
REMARK   67  A    between atoms: _156  and  _157
REMARK   68  A    between atoms: _160  and  _162
REMARK   69  A    between atoms: _162  and  _163
REMARK   70  A    between atoms: _162  and  _165
REMARK   71  A    between atoms: _165  and  _166
REMARK   72  A    between atoms: _169  and  _171
REMARK   73  A    between atoms: _171  and  _172
REMARK   74  A    between atoms: _171  and  _174
REMARK   75  A    between atoms: _174  and  _175
REMARK   76  A    between atoms: _180  and  _181
REMARK   77  A    between atoms: _183  and  _185
REMARK   78  A    between atoms: _185  and  _186
REMARK   79  A    between atoms: _185  and  _188
REMARK   80  A    between atoms: _188  and  _189
REMARK   81  A    between atoms: _189  and  _190
REMARK   82  A    between atoms: _193  and  _195
REMARK   83  A    between atoms: _195  and  _196
REMARK   84  A    between atoms: _195  and  _198
REMARK   85  A    between atoms: _198  and  _199
REMARK   86  A    between atoms: _205  and  _207
REMARK   87  A    between atoms: _207  and  _208
REMARK   88  A    between atoms: _207  and  _210
REMARK   89  A    between atoms: _210  and  _211
REMARK   90  A    between atoms: _214  and  _216
REMARK   91  A    between atoms: _216  and  _217
REMARK   92  A    between atoms: _216  and  _219
REMARK   93  A    between atoms: _219  and  _220
REMARK   94  A    between atoms: _220  and  _221
REMARK   95  A    between atoms: _223  and  _225
REMARK   96  A    between atoms: _225  and  _226
REMARK   97  A    between atoms: _225  and  _228
REMARK   98  A    between atoms: _228  and  _229
REMARK   99  A    between atoms: _229  and  _230
REMARK  100  A    between atoms: _232  and  _234
REMARK  101  A    between atoms: _234  and  _235
REMARK  102  A    between atoms: _234  and  _237
REMARK  103  A    between atoms: _240  and  _242
REMARK  104  A    between atoms: _242  and  _243
REMARK  105  A    between atoms: _245  and  _247
REMARK  106  A    between atoms: _247  and  _248
REMARK  107  A    between atoms: _247  and  _250
REMARK  108  A    between atoms: _250  and  _251
REMARK  109  A    between atoms: _251  and  _252
REMARK  110  A    between atoms: _257  and  _259
REMARK  111  A    between atoms: _259  and  _260
REMARK  112  A    between atoms: _259  and  _262
REMARK  113  A    between atoms: _262  and  _263
REMARK  114  A    between atoms: _266  and  _268
REMARK  115  A    between atoms: _268  and  _269
REMARK  116  A    between atoms: _271  and  _273
REMARK  117  A    between atoms: _273  and  _274
REMARK  118  A    between atoms: _273  and  _276
REMARK  119  A    between atoms: _276  and  _277
REMARK  120  A    between atoms: _283  and  _285
REMARK  121  A    between atoms: _285  and  _286
REMARK  122  A    between atoms: _285  and  _288
REMARK  123  A    between atoms: _288  and  _289
REMARK  124  A    between atoms: _294  and  _295
REMARK  125  A    between atoms: _297  and  _299
REMARK  126  A    between atoms: _299  and  _300
REMARK  127  A    between atoms: _299  and  _302
REMARK  128  A    between atoms: _305  and  _307
REMARK  129  A    between atoms: _307  and  _308
REMARK  130  A    between atoms: _311  and  _313
REMARK  131  A    between atoms: _313  and  _314
REMARK  132  A    between atoms: _313  and  _316
REMARK  133  A    between atoms: _316  and  _317
REMARK  134  A    between atoms: NI_327  and  _345
REMARK  135  A    between atoms: NI_328  and  _345
REMARK                            x       y       z     vdW  Elec       q    Type
REMARK                         _______ _______ _______ _____ _____    ______ ____
ROOT
ATOM      1  C   GLU A   1      13.849  15.805  40.090  0.00  0.00    +0.238 C 
ATOM      2  N   PHE A   2      12.555  16.032  39.852  0.00  0.00    -0.298 N 
ATOM      3  H   PHE A   2      11.940  16.359  40.624  0.00  0.00    +0.150 HD
ATOM      4  O   GLU A   1      14.624  15.443  39.204  0.00  0.00    -0.274 OA
ENDROOT
BRANCH   1   5
ATOM      5  CA  GLU A   1      14.343  16.040  41.503  0.00  0.00    +0.145 C 
BRANCH   5   6
ATOM      6  N   GLU A   1      13.902  17.295  42.034  0.00  0.00    -0.238 NA
ATOM      7  H   GLU A   1      13.218  17.305  42.818  0.00  0.00    +0.142 HD
ENDBRANCH   5   6
BRANCH   5   8
ATOM      8  CB  GLU A   1      13.937  14.889  42.450  0.00  0.00    +0.038 C 
BRANCH   8   9
ATOM      9  CG  GLU A   1      15.056  13.972  42.685  0.00  0.00    +0.116 C 
BRANCH   9  10
ATOM     10  CD  GLU A   1      14.748  12.844  43.654  0.00  0.00    +0.365 C 
ATOM     11  OE2 GLU A   1      15.096  13.003  44.844  0.00  0.00    -0.246 OA
ATOM     12  OE1 GLU A   1      14.253  11.797  43.181  0.00  0.00    -0.246 OA
ENDBRANCH   9  10
ENDBRANCH   8   9
ENDBRANCH   5   8
ENDBRANCH   1   5
BRANCH   2  13
ATOM     13  CA  PHE A   2      12.003  15.830  38.544  0.00  0.00    +0.141 C 
BRANCH  13  14
ATOM     14  C   PHE A   2      12.731  16.727  37.515  0.00  0.00    +0.227 C 
ATOM     15  O   PHE A   2      12.992  16.299  36.395  0.00  0.00    -0.286 OA
ENDBRANCH  13  14
BRANCH  13  16
ATOM     16  CB  PHE A   2      10.506  16.217  38.523  0.00  0.00    +0.054 C 
BRANCH  16  17
ATOM     17  CG  PHE A   2       9.590  15.278  39.283  0.00  0.00    -0.020 A 
ATOM     18  CD2 PHE A   2       8.324  15.728  39.695  0.00  0.00    -0.004 A 
ATOM     19  CE2 PHE A   2       7.439  14.881  40.394  0.00  0.00    -0.000 A 
ATOM     20  CZ  PHE A   2       7.830  13.568  40.669  0.00  0.00    -0.000 A 
ATOM     21  CE1 PHE A   2       9.082  13.131  40.267  0.00  0.00    -0.000 A 
ATOM     22  CD1 PHE A   2       9.946  13.987  39.559  0.00  0.00    -0.004 A 
ENDBRANCH  16  17
ENDBRANCH  13  16
ENDBRANCH   2  13
TORSDOF 9
REMARK  Name = ../refined-set-2016/4lm0/4lm0_pocket.pdb
REMARK  135 active torsions:
REMARK  status: ('A' for Active; 'I' for Inactive)
REMARK    1  A    between atoms: _1  and  _3
REMARK    2  A    between atoms: _3  and  _4
REMARK    3  A    between atoms: _3  and  _6
REMARK    4  A    between atoms: _6  and  _7
REMARK    5  A    between atoms: _12  and  _13
REMARK    6  A    between atoms: _15  and  _17
REMARK    7  A    between atoms: _17  and  _18
REMARK    8  A    between atoms: _17  and  _20
REMARK    9  A    between atoms: _20  and  _21
REMARK   10  A    between atoms: _26  and  _28
REMARK   11  A    between atoms: _28  and  _29
REMARK   12  A    between atoms: _28  and  _31
REMARK   13  A    between atoms: _31  and  _32
REMARK   14  A    between atoms: _36  and  NI_327
REMARK   15  A    between atoms: _37  and  _39
REMARK   16  A    between atoms: _39  and  _40
REMARK   17  A    between atoms: _39  and  _42
REMARK   18  A    between atoms: _42  and  _43
REMARK   19  A    between atoms: _48  and  _50
REMARK   20  A    between atoms: _50  and  _51
REMARK   21  A    between atoms: _50  and  _53
REMARK   22  A    between atoms: _53  and  _54
REMARK   23  A    between atoms: _56  and  _58
REMARK   24  A    between atoms: _58  and  _59
REMARK   25  A    between atoms: _58  and  _61
REMARK   26  A    between atoms: _61  and  _62
REMARK   27  A    between atoms: _67  and  _69
REMARK   28  A    between atoms: _69  and  _70
REMARK   29  A    between atoms: _69  and  _72
REMARK   30  A    between atoms: _72  and  _73
REMARK   31  A    between atoms: _75  and  _77
REMARK   32  A    between atoms: _77  and  _78
REMARK   33  A    between atoms: _77  and  _80
REMARK   34  A    between atoms: _80  and  _81
REMARK   35  A    between atoms: _84  and  _86
REMARK   36  A    between atoms: _86  and  _87
REMARK   37  A    between atoms: _86  and  _89
REMARK   38  A    between atoms: _89  and  _90
REMARK   39  A    between atoms: _93  and  _95
REMARK   40  A    between atoms: _95  and  _96
REMARK   41  A    between atoms: _95  and  _98
REMARK   42  A    between atoms: _98  and  _99
REMARK   43  A    between atoms: _102  and  _104
REMARK   44  A    between atoms: _104  and  _105
REMARK   45  A    between atoms: _108  and  _110
REMARK   46  A    between atoms: _110  and  _111
REMARK   47  A    between atoms: _110  and  _113
REMARK   48  A    between atoms: _113  and  _114
REMARK   49  A    between atoms: _120  and  _122
REMARK   50  A    between atoms: _122  and  _123
REMARK   51  A    between atoms: _122  and  _125
REMARK   52  A    between atoms: _125  and  _126
REMARK   53  A    between atoms: _126  and  _128
REMARK   54  A    between atoms: _128  and  NI_327
REMARK   55  A    between atoms: _129  and  _131
REMARK   56  A    between atoms: _131  and  _132
REMARK   57  A    between atoms: _131  and  _134
REMARK   58  A    between atoms: _134  and  _135
REMARK   59  A    between atoms: _138  and  _140
REMARK   60  A    between atoms: _140  and  _141
REMARK   61  A    between atoms: _140  and  _143
REMARK   62  A    between atoms: _143  and  _144
REMARK   63  A    between atoms: _146  and  _148
REMARK   64  A    between atoms: _148  and  _149
REMARK   65  A    between atoms: _148  and  _151
REMARK   66  A    between atoms: _154  and  _156
REMARK   67  A    between atoms: _156  and  _157
REMARK   68  A    between atoms: _160  and  _162
REMARK   69  A    between atoms: _162  and  _163
REMARK   70  A    between atoms: _162  and  _165
REMARK   71  A    between atoms: _165  and  _166
REMARK   72  A    between atoms: _169  and  _171
REMARK   73  A    between atoms: _171  and  _172
REMARK   74  A    between atoms: _171  and  _174
REMARK   75  A    between atoms: _174  and  _175
REMARK   76  A    between atoms: _180  and  _181
REMARK   77  A    between atoms: _183  and  _185
REMARK   78  A    between atoms: _185  and  _186
REMARK   79  A    between atoms: _185  and  _188
REMARK   80  A    between atoms: _188  and  _189
REMARK   81  A    between atoms: _189  and  _190
REMARK   82  A    between atoms: _193  and  _195
REMARK   83  A    between atoms: _195  and  _196
REMARK   84  A    between atoms: _195  and  _198
REMARK   85  A    between atoms: _198  and  _199
REMARK   86  A    between atoms: _205  and  _207
REMARK   87  A    between atoms: _207  and  _208
REMARK   88  A    between atoms: _207  and  _210
REMARK   89  A    between atoms: _210  and  _211
REMARK   90  A    between atoms: _214  and  _216
REMARK   91  A    between atoms: _216  and  _217
REMARK   92  A    between atoms: _216  and  _219
REMARK   93  A    between atoms: _219  and  _220
REMARK   94  A    between atoms: _220  and  _221
REMARK   95  A    between atoms: _223  and  _225
REMARK   96  A    between atoms: _225  and  _226
REMARK   97  A    between atoms: _225  and  _228
REMARK   98  A    between atoms: _228  and  _229
REMARK   99  A    between atoms: _229  and  _230
REMARK  100  A    between atoms: _232  and  _234
REMARK  101  A    between atoms: _234  and  _235
REMARK  102  A    between atoms: _234  and  _237
REMARK  103  A    between atoms: _240  and  _242
REMARK  104  A    between atoms: _242  and  _243
REMARK  105  A    between atoms: _245  and  _247
REMARK  106  A    between atoms: _247  and  _248
REMARK  107  A    between atoms: _247  and  _250
REMARK  108  A    between atoms: _250  and  _251
REMARK  109  A    between atoms: _251  and  _252
REMARK  110  A    between atoms: _257  and  _259
REMARK  111  A    between atoms: _259  and  _260
REMARK  112  A    between atoms: _259  and  _262
REMARK  113  A    between atoms: _262  and  _263
REMARK  114  A    between atoms: _266  and  _268
REMARK  115  A    between atoms: _268  and  _269
REMARK  116  A    between atoms: _271  and  _273
REMARK  117  A    between atoms: _273  and  _274
REMARK  118  A    between atoms: _273  and  _276
REMARK  119  A    between atoms: _276  and  _277
REMARK  120  A    between atoms: _283  and  _285
REMARK  121  A    between atoms: _285  and  _286
REMARK  122  A    between atoms: _285  and  _288
REMARK  123  A    between atoms: _288  and  _289
REMARK  124  A    between atoms: _294  and  _295
REMARK  125  A    between atoms: _297  and  _299
REMARK  126  A    between atoms: _299  and  _300
REMARK  127  A    between atoms: _299  and  _302
REMARK  128  A    between atoms: _305  and  _307
REMARK  129  A    between atoms: _307  and  _308
REMARK  130  A    between atoms: _311  and  _313
REMARK  131  A    between atoms: _313  and  _314
REMARK  132  A    between atoms: _313  and  _316
REMARK  133  A    between atoms: _316  and  _317
REMARK  134  A    between atoms: NI_327  and  _345
REMARK  135  A    between atoms: NI_328  and  _345
REMARK                            x       y       z     vdW  Elec       q    Type
REMARK                         _______ _______ _______ _____ _____    ______ ____
ROOT
ATOM      1  CA  ILE A   1       7.169  15.158  30.120  0.00  0.00    +0.133 C 
ENDROOT
BRANCH   1   2
ATOM      2  N   ILE A   1       8.557  14.896  29.792  0.00  0.00    -0.239 NA
ATOM      3  H   ILE A   1       9.037  14.052  30.164  0.00  0.00    +0.142 HD
ENDBRANCH   1   2
BRANCH   1   4
ATOM      4  CB  ILE A   1       6.581  14.089  31.094  0.00  0.00    +0.023 C 
ATOM      5  CG2 ILE A   1       6.445  12.719  30.381  0.00  0.00    +0.002 C 
BRANCH   4   6
ATOM      6  CG1 ILE A   1       7.461  13.982  32.354  0.00  0.00    +0.002 C 
ATOM      7  CD1 ILE A   1       6.918  13.071  33.429  0.00  0.00    +0.000 C 
ENDBRANCH   4   6
ENDBRANCH   1   4
BRANCH   1   8
ATOM      8  C   ILE A   1       7.185  16.562  30.771  0.00  0.00    +0.224 C 
ATOM      9  O   ILE A   1       8.191  16.984  31.348  0.00  0.00    -0.287 OA
ENDBRANCH   1   8
TORSDOF 4
REMARK  Name = ../refined-set-2016/4lm0/4lm0_pocket.pdb
REMARK  135 active torsions:
REMARK  status: ('A' for Active; 'I' for Inactive)
REMARK    1  A    between atoms: _1  and  _3
REMARK    2  A    between atoms: _3  and  _4
REMARK    3  A    between atoms: _3  and  _6
REMARK    4  A    between atoms: _6  and  _7
REMARK    5  A    between atoms: _12  and  _13
REMARK    6  A    between atoms: _15  and  _17
REMARK    7  A    between atoms: _17  and  _18
REMARK    8  A    between atoms: _17  and  _20
REMARK    9  A    between atoms: _20  and  _21
REMARK   10  A    between atoms: _26  and  _28
REMARK   11  A    between atoms: _28  and  _29
REMARK   12  A    between atoms: _28  and  _31
REMARK   13  A    between atoms: _31  and  _32
REMARK   14  A    between atoms: _36  and  NI_327
REMARK   15  A    between atoms: _37  and  _39
REMARK   16  A    between atoms: _39  and  _40
REMARK   17  A    between atoms: _39  and  _42
REMARK   18  A    between atoms: _42  and  _43
REMARK   19  A    between atoms: _48  and  _50
REMARK   20  A    between atoms: _50  and  _51
REMARK   21  A    between atoms: _50  and  _53
REMARK   22  A    between atoms: _53  and  _54
REMARK   23  A    between atoms: _56  and  _58
REMARK   24  A    between atoms: _58  and  _59
REMARK   25  A    between atoms: _58  and  _61
REMARK   26  A    between atoms: _61  and  _62
REMARK   27  A    between atoms: _67  and  _69
REMARK   28  A    between atoms: _69  and  _70
REMARK   29  A    between atoms: _69  and  _72
REMARK   30  A    between atoms: _72  and  _73
REMARK   31  A    between atoms: _75  and  _77
REMARK   32  A    between atoms: _77  and  _78
REMARK   33  A    between atoms: _77  and  _80
REMARK   34  A    between atoms: _80  and  _81
REMARK   35  A    between atoms: _84  and  _86
REMARK   36  A    between atoms: _86  and  _87
REMARK   37  A    between atoms: _86  and  _89
REMARK   38  A    between atoms: _89  and  _90
REMARK   39  A    between atoms: _93  and  _95
REMARK   40  A    between atoms: _95  and  _96
REMARK   41  A    between atoms: _95  and  _98
REMARK   42  A    between atoms: _98  and  _99
REMARK   43  A    between atoms: _102  and  _104
REMARK   44  A    between atoms: _104  and  _105
REMARK   45  A    between atoms: _108  and  _110
REMARK   46  A    between atoms: _110  and  _111
REMARK   47  A    between atoms: _110  and  _113
REMARK   48  A    between atoms: _113  and  _114
REMARK   49  A    between atoms: _120  and  _122
REMARK   50  A    between atoms: _122  and  _123
REMARK   51  A    between atoms: _122  and  _125
REMARK   52  A    between atoms: _125  and  _126
REMARK   53  A    between atoms: _126  and  _128
REMARK   54  A    between atoms: _128  and  NI_327
REMARK   55  A    between atoms: _129  and  _131
REMARK   56  A    between atoms: _131  and  _132
REMARK   57  A    between atoms: _131  and  _134
REMARK   58  A    between atoms: _134  and  _135
REMARK   59  A    between atoms: _138  and  _140
REMARK   60  A    between atoms: _140  and  _141
REMARK   61  A    between atoms: _140  and  _143
REMARK   62  A    between atoms: _143  and  _144
REMARK   63  A    between atoms: _146  and  _148
REMARK   64  A    between atoms: _148  and  _149
REMARK   65  A    between atoms: _148  and  _151
REMARK   66  A    between atoms: _154  and  _156
REMARK   67  A    between atoms: _156  and  _157
REMARK   68  A    between atoms: _160  and  _162
REMARK   69  A    between atoms: _162  and  _163
REMARK   70  A    between atoms: _162  and  _165
REMARK   71  A    between atoms: _165  and  _166
REMARK   72  A    between atoms: _169  and  _171
REMARK   73  A    between atoms: _171  and  _172
REMARK   74  A    between atoms: _171  and  _174
REMARK   75  A    between atoms: _174  and  _175
REMARK   76  A    between atoms: _180  and  _181
REMARK   77  A    between atoms: _183  and  _185
REMARK   78  A    between atoms: _185  and  _186
REMARK   79  A    between atoms: _185  and  _188
REMARK   80  A    between atoms: _188  and  _189
REMARK   81  A    between atoms: _189  and  _190
REMARK   82  A    between atoms: _193  and  _195
REMARK   83  A    between atoms: _195  and  _196
REMARK   84  A    between atoms: _195  and  _198
REMARK   85  A    between atoms: _198  and  _199
REMARK   86  A    between atoms: _205  and  _207
REMARK   87  A    between atoms: _207  and  _208
REMARK   88  A    between atoms: _207  and  _210
REMARK   89  A    between atoms: _210  and  _211
REMARK   90  A    between atoms: _214  and  _216
REMARK   91  A    between atoms: _216  and  _217
REMARK   92  A    between atoms: _216  and  _219
REMARK   93  A    between atoms: _219  and  _220
REMARK   94  A    between atoms: _220  and  _221
REMARK   95  A    between atoms: _223  and  _225
REMARK   96  A    between atoms: _225  and  _226
REMARK   97  A    between atoms: _225  and  _228
REMARK   98  A    between atoms: _228  and  _229
REMARK   99  A    between atoms: _229  and  _230
REMARK  100  A    between atoms: _232  and  _234
REMARK  101  A    between atoms: _234  and  _235
REMARK  102  A    between atoms: _234  and  _237
REMARK  103  A    between atoms: _240  and  _242
REMARK  104  A    between atoms: _242  and  _243
REMARK  105  A    between atoms: _245  and  _247
REMARK  106  A    between atoms: _247  and  _248
REMARK  107  A    between atoms: _247  and  _250
REMARK  108  A    between atoms: _250  and  _251
REMARK  109  A    between atoms: _251  and  _252
REMARK  110  A    between atoms: _257  and  _259
REMARK  111  A    between atoms: _259  and  _260
REMARK  112  A    between atoms: _259  and  _262
REMARK  113  A    between atoms: _262  and  _263
REMARK  114  A    between atoms: _266  and  _268
REMARK  115  A    between atoms: _268  and  _269
REMARK  116  A    between atoms: _271  and  _273
REMARK  117  A    between atoms: _273  and  _274
REMARK  118  A    between atoms: _273  and  _276
REMARK  119  A    between atoms: _276  and  _277
REMARK  120  A    between atoms: _283  and  _285
REMARK  121  A    between atoms: _285  and  _286
REMARK  122  A    between atoms: _285  and  _288
REMARK  123  A    between atoms: _288  and  _289
REMARK  124  A    between atoms: _294  and  _295
REMARK  125  A    between atoms: _297  and  _299
REMARK  126  A    between atoms: _299  and  _300
REMARK  127  A    between atoms: _299  and  _302
REMARK  128  A    between atoms: _305  and  _307
REMARK  129  A    between atoms: _307  and  _308
REMARK  130  A    between atoms: _311  and  _313
REMARK  131  A    between atoms: _313  and  _314
REMARK  132  A    between atoms: _313  and  _316
REMARK  133  A    between atoms: _316  and  _317
REMARK  134  A    between atoms: NI_327  and  _345
REMARK  135  A    between atoms: NI_328  and  _345
REMARK                            x       y       z     vdW  Elec       q    Type
REMARK                         _______ _______ _______ _____ _____    ______ ____
ROOT
ATOM      1  C   MET A   1       7.672  17.628  35.229  0.00  0.00    +0.238 C 
ATOM      2  O   MET A   1       8.051  18.106  36.302  0.00  0.00    -0.274 OA
ATOM      3  N   MET A   2       8.494  17.163  34.289  0.00  0.00    -0.298 N 
ATOM      4  H   MET A   2       8.113  16.821  33.384  0.00  0.00    +0.150 HD
ENDROOT
BRANCH   1   5
ATOM      5  CA  MET A   1       6.194  17.553  34.895  0.00  0.00    +0.146 C 
BRANCH   5   6
ATOM      6  N   MET A   1       5.958  17.641  33.469  0.00  0.00    -0.238 NA
ATOM      7  H   MET A   1       5.454  16.863  32.997  0.00  0.00    +0.142 HD
ENDBRANCH   5   6
BRANCH   5   8
ATOM      8  CB  MET A   1       5.625  16.234  35.436  0.00  0.00    +0.038 C 
BRANCH   8   9
ATOM      9  CG  MET A   1       5.544  16.193  36.965  0.00  0.00    +0.060 C 
BRANCH   9  10
ATOM     10  SD  MET A   1       5.133  14.536  37.614  0.00  0.00    -0.139 S 
ATOM     11  CE  MET A   1       6.711  13.683  37.377  0.00  0.00    +0.069 C 
ENDBRANCH   9  10
ENDBRANCH   8   9
ENDBRANCH   5   8
ENDBRANCH   1   5
BRANCH   3  12
ATOM     12  CA  MET A   2       9.937  17.136  34.537  0.00  0.00    +0.138 C 
BRANCH  12  13
ATOM     13  C   MET A   2      10.651  18.307  33.849  0.00  0.00    +0.227 C 
ATOM     14  O   MET A   2      11.886  18.380  33.855  0.00  0.00    -0.286 OA
ENDBRANCH  12  13
BRANCH  12  15
ATOM     15  CB  MET A   2      10.529  15.794  34.106  0.00  0.00    +0.039 C 
BRANCH  15  16
ATOM     16  CG  MET A   2      10.037  14.626  35.003  0.00  0.00    +0.060 C 
BRANCH  16  17
ATOM     17  SD  MET A   2      10.887  13.109  34.432  0.00  0.00    -0.139 S 
ATOM     18  CE  MET A   2      10.052  11.808  35.351  0.00  0.00    +0.069 C 
ENDBRANCH  16  17
ENDBRANCH  15  16
ENDBRANCH  12  15
ENDBRANCH   3  12
TORSDOF 10
REMARK  Name = ../refined-set-2016/4lm0/4lm0_pocket.pdb
REMARK  135 active torsions:
REMARK  status: ('A' for Active; 'I' for Inactive)
REMARK    1  A    between atoms: _1  and  _3
REMARK    2  A    between atoms: _3  and  _4
REMARK    3  A    between atoms: _3  and  _6
REMARK    4  A    between atoms: _6  and  _7
REMARK    5  A    between atoms: _12  and  _13
REMARK    6  A    between atoms: _15  and  _17
REMARK    7  A    between atoms: _17  and  _18
REMARK    8  A    between atoms: _17  and  _20
REMARK    9  A    between atoms: _20  and  _21
REMARK   10  A    between atoms: _26  and  _28
REMARK   11  A    between atoms: _28  and  _29
REMARK   12  A    between atoms: _28  and  _31
REMARK   13  A    between atoms: _31  and  _32
REMARK   14  A    between atoms: _36  and  NI_327
REMARK   15  A    between atoms: _37  and  _39
REMARK   16  A    between atoms: _39  and  _40
REMARK   17  A    between atoms: _39  and  _42
REMARK   18  A    between atoms: _42  and  _43
REMARK   19  A    between atoms: _48  and  _50
REMARK   20  A    between atoms: _50  and  _51
REMARK   21  A    between atoms: _50  and  _53
REMARK   22  A    between atoms: _53  and  _54
REMARK   23  A    between atoms: _56  and  _58
REMARK   24  A    between atoms: _58  and  _59
REMARK   25  A    between atoms: _58  and  _61
REMARK   26  A    between atoms: _61  and  _62
REMARK   27  A    between atoms: _67  and  _69
REMARK   28  A    between atoms: _69  and  _70
REMARK   29  A    between atoms: _69  and  _72
REMARK   30  A    between atoms: _72  and  _73
REMARK   31  A    between atoms: _75  and  _77
REMARK   32  A    between atoms: _77  and  _78
REMARK   33  A    between atoms: _77  and  _80
REMARK   34  A    between atoms: _80  and  _81
REMARK   35  A    between atoms: _84  and  _86
REMARK   36  A    between atoms: _86  and  _87
REMARK   37  A    between atoms: _86  and  _89
REMARK   38  A    between atoms: _89  and  _90
REMARK   39  A    between atoms: _93  and  _95
REMARK   40  A    between atoms: _95  and  _96
REMARK   41  A    between atoms: _95  and  _98
REMARK   42  A    between atoms: _98  and  _99
REMARK   43  A    between atoms: _102  and  _104
REMARK   44  A    between atoms: _104  and  _105
REMARK   45  A    between atoms: _108  and  _110
REMARK   46  A    between atoms: _110  and  _111
REMARK   47  A    between atoms: _110  and  _113
REMARK   48  A    between atoms: _113  and  _114
REMARK   49  A    between atoms: _120  and  _122
REMARK   50  A    between atoms: _122  and  _123
REMARK   51  A    between atoms: _122  and  _125
REMARK   52  A    between atoms: _125  and  _126
REMARK   53  A    between atoms: _126  and  _128
REMARK   54  A    between atoms: _128  and  NI_327
REMARK   55  A    between atoms: _129  and  _131
REMARK   56  A    between atoms: _131  and  _132
REMARK   57  A    between atoms: _131  and  _134
REMARK   58  A    between atoms: _134  and  _135
REMARK   59  A    between atoms: _138  and  _140
REMARK   60  A    between atoms: _140  and  _141
REMARK   61  A    between atoms: _140  and  _143
REMARK   62  A    between atoms: _143  and  _144
REMARK   63  A    between atoms: _146  and  _148
REMARK   64  A    between atoms: _148  and  _149
REMARK   65  A    between atoms: _148  and  _151
REMARK   66  A    between atoms: _154  and  _156
REMARK   67  A    between atoms: _156  and  _157
REMARK   68  A    between atoms: _160  and  _162
REMARK   69  A    between atoms: _162  and  _163
REMARK   70  A    between atoms: _162  and  _165
REMARK   71  A    between atoms: _165  and  _166
REMARK   72  A    between atoms: _169  and  _171
REMARK   73  A    between atoms: _171  and  _172
REMARK   74  A    between atoms: _171  and  _174
REMARK   75  A    between atoms: _174  and  _175
REMARK   76  A    between atoms: _180  and  _181
REMARK   77  A    between atoms: _183  and  _185
REMARK   78  A    between atoms: _185  and  _186
REMARK   79  A    between atoms: _185  and  _188
REMARK   80  A    between atoms: _188  and  _189
REMARK   81  A    between atoms: _189  and  _190
REMARK   82  A    between atoms: _193  and  _195
REMARK   83  A    between atoms: _195  and  _196
REMARK   84  A    between atoms: _195  and  _198
REMARK   85  A    between atoms: _198  and  _199
REMARK   86  A    between atoms: _205  and  _207
REMARK   87  A    between atoms: _207  and  _208
REMARK   88  A    between atoms: _207  and  _210
REMARK   89  A    between atoms: _210  and  _211
REMARK   90  A    between atoms: _214  and  _216
REMARK   91  A    between atoms: _216  and  _217
REMARK   92  A    between atoms: _216  and  _219
REMARK   93  A    between atoms: _219  and  _220
REMARK   94  A    between atoms: _220  and  _221
REMARK   95  A    between atoms: _223  and  _225
REMARK   96  A    between atoms: _225  and  _226
REMARK   97  A    between atoms: _225  and  _228
REMARK   98  A    between atoms: _228  and  _229
REMARK   99  A    between atoms: _229  and  _230
REMARK  100  A    between atoms: _232  and  _234
REMARK  101  A    between atoms: _234  and  _235
REMARK  102  A    between atoms: _234  and  _237
REMARK  103  A    between atoms: _240  and  _242
REMARK  104  A    between atoms: _242  and  _243
REMARK  105  A    between atoms: _245  and  _247
REMARK  106  A    between atoms: _247  and  _248
REMARK  107  A    between atoms: _247  and  _250
REMARK  108  A    between atoms: _250  and  _251
REMARK  109  A    between atoms: _251  and  _252
REMARK  110  A    between atoms: _257  and  _259
REMARK  111  A    between atoms: _259  and  _260
REMARK  112  A    between atoms: _259  and  _262
REMARK  113  A    between atoms: _262  and  _263
REMARK  114  A    between atoms: _266  and  _268
REMARK  115  A    between atoms: _268  and  _269
REMARK  116  A    between atoms: _271  and  _273
REMARK  117  A    between atoms: _273  and  _274
REMARK  118  A    between atoms: _273  and  _276
REMARK  119  A    between atoms: _276  and  _277
REMARK  120  A    between atoms: _283  and  _285
REMARK  121  A    between atoms: _285  and  _286
REMARK  122  A    between atoms: _285  and  _288
REMARK  123  A    between atoms: _288  and  _289
REMARK  124  A    between atoms: _294  and  _295
REMARK  125  A    between atoms: _297  and  _299
REMARK  126  A    between atoms: _299  and  _300
REMARK  127  A    between atoms: _299  and  _302
REMARK  128  A    between atoms: _305  and  _307
REMARK  129  A    between atoms: _307  and  _308
REMARK  130  A    between atoms: _311  and  _313
REMARK  131  A    between atoms: _313  and  _314
REMARK  132  A    between atoms: _313  and  _316
REMARK  133  A    between atoms: _316  and  _317
REMARK  134  A    between atoms: NI_327  and  _345
REMARK  135  A    between atoms: NI_328  and  _345
REMARK                            x       y       z     vdW  Elec       q    Type
REMARK                         _______ _______ _______ _____ _____    ______ ____
ROOT
ATOM      1  CA  VAL A   1       2.584  22.264  38.229  0.00  0.00    +0.133 C 
ENDROOT
BRANCH   1   2
ATOM      2  CB  VAL A   1       3.701  22.749  39.128  0.00  0.00    +0.023 C 
ATOM      3  CG2 VAL A   1       3.575  22.105  40.517  0.00  0.00    +0.002 C 
ATOM      4  CG1 VAL A   1       5.095  22.439  38.492  0.00  0.00    +0.002 C 
ENDBRANCH   1   2
BRANCH   1   5
ATOM      5  N   VAL A   1       2.470  23.061  36.983  0.00  0.00    -0.239 NA
ATOM      6  H   VAL A   1       3.060  23.909  36.860  0.00  0.00    +0.142 HD
ENDBRANCH   1   5
BRANCH   1   7
ATOM      7  C   VAL A   1       1.253  22.150  39.023  0.00  0.00    +0.224 C 
ATOM      8  O   VAL A   1       0.899  21.051  39.433  0.00  0.00    -0.287 OA
ENDBRANCH   1   7
TORSDOF 3
REMARK  Name = ../refined-set-2016/4lm0/4lm0_pocket.pdb
REMARK  135 active torsions:
REMARK  status: ('A' for Active; 'I' for Inactive)
REMARK    1  A    between atoms: _1  and  _3
REMARK    2  A    between atoms: _3  and  _4
REMARK    3  A    between atoms: _3  and  _6
REMARK    4  A    between atoms: _6  and  _7
REMARK    5  A    between atoms: _12  and  _13
REMARK    6  A    between atoms: _15  and  _17
REMARK    7  A    between atoms: _17  and  _18
REMARK    8  A    between atoms: _17  and  _20
REMARK    9  A    between atoms: _20  and  _21
REMARK   10  A    between atoms: _26  and  _28
REMARK   11  A    between atoms: _28  and  _29
REMARK   12  A    between atoms: _28  and  _31
REMARK   13  A    between atoms: _31  and  _32
REMARK   14  A    between atoms: _36  and  NI_327
REMARK   15  A    between atoms: _37  and  _39
REMARK   16  A    between atoms: _39  and  _40
REMARK   17  A    between atoms: _39  and  _42
REMARK   18  A    between atoms: _42  and  _43
REMARK   19  A    between atoms: _48  and  _50
REMARK   20  A    between atoms: _50  and  _51
REMARK   21  A    between atoms: _50  and  _53
REMARK   22  A    between atoms: _53  and  _54
REMARK   23  A    between atoms: _56  and  _58
REMARK   24  A    between atoms: _58  and  _59
REMARK   25  A    between atoms: _58  and  _61
REMARK   26  A    between atoms: _61  and  _62
REMARK   27  A    between atoms: _67  and  _69
REMARK   28  A    between atoms: _69  and  _70
REMARK   29  A    between atoms: _69  and  _72
REMARK   30  A    between atoms: _72  and  _73
REMARK   31  A    between atoms: _75  and  _77
REMARK   32  A    between atoms: _77  and  _78
REMARK   33  A    between atoms: _77  and  _80
REMARK   34  A    between atoms: _80  and  _81
REMARK   35  A    between atoms: _84  and  _86
REMARK   36  A    between atoms: _86  and  _87
REMARK   37  A    between atoms: _86  and  _89
REMARK   38  A    between atoms: _89  and  _90
REMARK   39  A    between atoms: _93  and  _95
REMARK   40  A    between atoms: _95  and  _96
REMARK   41  A    between atoms: _95  and  _98
REMARK   42  A    between atoms: _98  and  _99
REMARK   43  A    between atoms: _102  and  _104
REMARK   44  A    between atoms: _104  and  _105
REMARK   45  A    between atoms: _108  and  _110
REMARK   46  A    between atoms: _110  and  _111
REMARK   47  A    between atoms: _110  and  _113
REMARK   48  A    between atoms: _113  and  _114
REMARK   49  A    between atoms: _120  and  _122
REMARK   50  A    between atoms: _122  and  _123
REMARK   51  A    between atoms: _122  and  _125
REMARK   52  A    between atoms: _125  and  _126
REMARK   53  A    between atoms: _126  and  _128
REMARK   54  A    between atoms: _128  and  NI_327
REMARK   55  A    between atoms: _129  and  _131
REMARK   56  A    between atoms: _131  and  _132
REMARK   57  A    between atoms: _131  and  _134
REMARK   58  A    between atoms: _134  and  _135
REMARK   59  A    between atoms: _138  and  _140
REMARK   60  A    between atoms: _140  and  _141
REMARK   61  A    between atoms: _140  and  _143
REMARK   62  A    between atoms: _143  and  _144
REMARK   63  A    between atoms: _146  and  _148
REMARK   64  A    between atoms: _148  and  _149
REMARK   65  A    between atoms: _148  and  _151
REMARK   66  A    between atoms: _154  and  _156
REMARK   67  A    between atoms: _156  and  _157
REMARK   68  A    between atoms: _160  and  _162
REMARK   69  A    between atoms: _162  and  _163
REMARK   70  A    between atoms: _162  and  _165
REMARK   71  A    between atoms: _165  and  _166
REMARK   72  A    between atoms: _169  and  _171
REMARK   73  A    between atoms: _171  and  _172
REMARK   74  A    between atoms: _171  and  _174
REMARK   75  A    between atoms: _174  and  _175
REMARK   76  A    between atoms: _180  and  _181
REMARK   77  A    between atoms: _183  and  _185
REMARK   78  A    between atoms: _185  and  _186
REMARK   79  A    between atoms: _185  and  _188
REMARK   80  A    between atoms: _188  and  _189
REMARK   81  A    between atoms: _189  and  _190
REMARK   82  A    between atoms: _193  and  _195
REMARK   83  A    between atoms: _195  and  _196
REMARK   84  A    between atoms: _195  and  _198
REMARK   85  A    between atoms: _198  and  _199
REMARK   86  A    between atoms: _205  and  _207
REMARK   87  A    between atoms: _207  and  _208
REMARK   88  A    between atoms: _207  and  _210
REMARK   89  A    between atoms: _210  and  _211
REMARK   90  A    between atoms: _214  and  _216
REMARK   91  A    between atoms: _216  and  _217
REMARK   92  A    between atoms: _216  and  _219
REMARK   93  A    between atoms: _219  and  _220
REMARK   94  A    between atoms: _220  and  _221
REMARK   95  A    between atoms: _223  and  _225
REMARK   96  A    between atoms: _225  and  _226
REMARK   97  A    between atoms: _225  and  _228
REMARK   98  A    between atoms: _228  and  _229
REMARK   99  A    between atoms: _229  and  _230
REMARK  100  A    between atoms: _232  and  _234
REMARK  101  A    between atoms: _234  and  _235
REMARK  102  A    between atoms: _234  and  _237
REMARK  103  A    between atoms: _240  and  _242
REMARK  104  A    between atoms: _242  and  _243
REMARK  105  A    between atoms: _245  and  _247
REMARK  106  A    between atoms: _247  and  _248
REMARK  107  A    between atoms: _247  and  _250
REMARK  108  A    between atoms: _250  and  _251
REMARK  109  A    between atoms: _251  and  _252
REMARK  110  A    between atoms: _257  and  _259
REMARK  111  A    between atoms: _259  and  _260
REMARK  112  A    between atoms: _259  and  _262
REMARK  113  A    between atoms: _262  and  _263
REMARK  114  A    between atoms: _266  and  _268
REMARK  115  A    between atoms: _268  and  _269
REMARK  116  A    between atoms: _271  and  _273
REMARK  117  A    between atoms: _273  and  _274
REMARK  118  A    between atoms: _273  and  _276
REMARK  119  A    between atoms: _276  and  _277
REMARK  120  A    between atoms: _283  and  _285
REMARK  121  A    between atoms: _285  and  _286
REMARK  122  A    between atoms: _285  and  _288
REMARK  123  A    between atoms: _288  and  _289
REMARK  124  A    between atoms: _294  and  _295
REMARK  125  A    between atoms: _297  and  _299
REMARK  126  A    between atoms: _299  and  _300
REMARK  127  A    between atoms: _299  and  _302
REMARK  128  A    between atoms: _305  and  _307
REMARK  129  A    between atoms: _307  and  _308
REMARK  130  A    between atoms: _311  and  _313
REMARK  131  A    between atoms: _313  and  _314
REMARK  132  A    between atoms: _313  and  _316
REMARK  133  A    between atoms: _316  and  _317
REMARK  134  A    between atoms: NI_327  and  _345
REMARK  135  A    between atoms: NI_328  and  _345
REMARK                            x       y       z     vdW  Elec       q    Type
REMARK                         _______ _______ _______ _____ _____    ______ ____
ROOT
ATOM      1  CA  GLY A   4      -4.274  15.355  38.418  0.00  0.00    +0.176 C 
ENDROOT
BRANCH   1   2
ATOM      2  C   GLY A   4      -3.757  14.204  39.271  0.00  0.00    +0.243 C 
ATOM      3  N   PHE A   5      -2.631  14.422  39.951  0.00  0.00    -0.297 N 
ATOM      4  H   PHE A   5      -2.150  15.339  39.853  0.00  0.00    +0.150 HD
ATOM      5  O   GLY A   4      -4.369  13.135  39.303  0.00  0.00    -0.273 OA
BRANCH   3   6
ATOM      6  CA  PHE A   5      -2.056  13.407  40.830  0.00  0.00    +0.153 C 
BRANCH   6   7
ATOM      7  C   PHE A   5      -2.975  13.087  42.014  0.00  0.00    +0.241 C 
ATOM      8  N   TYR A   6      -3.595  14.108  42.607  0.00  0.00    -0.298 N 
ATOM      9  H   TYR A   6      -3.445  15.077  42.262  0.00  0.00    +0.150 HD
ATOM     10  O   PHE A   5      -3.151  11.908  42.357  0.00  0.00    -0.273 OA
BRANCH   8  11
ATOM     11  CA  TYR A   6      -4.495  13.864  43.755  0.00  0.00    +0.141 C 
BRANCH  11  12
ATOM     12  C   TYR A   6      -5.752  13.156  43.277  0.00  0.00    +0.227 C 
ATOM     13  O   TYR A   6      -6.242  12.232  43.931  0.00  0.00    -0.286 OA
ENDBRANCH  11  12
BRANCH  11  14
ATOM     14  CB  TYR A   6      -4.890  15.152  44.446  0.00  0.00    +0.054 C 
BRANCH  14  15
ATOM     15  CG  TYR A   6      -3.874  15.704  45.437  0.00  0.00    -0.020 A 
ATOM     16  CD2 TYR A   6      -4.160  15.745  46.816  0.00  0.00    -0.001 A 
ATOM     17  CE2 TYR A   6      -3.254  16.274  47.719  0.00  0.00    +0.036 A 
ATOM     18  CZ  TYR A   6      -2.051  16.769  47.251  0.00  0.00    +0.134 A 
ATOM     19  CE1 TYR A   6      -1.731  16.710  45.914  0.00  0.00    +0.036 A 
ATOM     20  CD1 TYR A   6      -2.639  16.183  45.011  0.00  0.00    -0.001 A 
BRANCH  18  21
ATOM     21  OH  TYR A   6      -1.143  17.296  48.137  0.00  0.00    -0.506 OA
ATOM     22  HH  TYR A   6      -0.342  17.603  47.643  0.00  0.00    +0.292 HD
ENDBRANCH  18  21
ENDBRANCH  14  15
ENDBRANCH  11  14
ENDBRANCH   8  11
ENDBRANCH   6   7
BRANCH   6  23
ATOM     23  CB  PHE A   5      -0.664  13.838  41.334  0.00  0.00    +0.055 C 
BRANCH  23  24
ATOM     24  CG  PHE A   5      -0.002  12.790  42.174  0.00  0.00    -0.020 A 
ATOM     25  CD2 PHE A   5      -0.039  12.858  43.576  0.00  0.00    -0.004 A 
ATOM     26  CE2 PHE A   5       0.549  11.832  44.361  0.00  0.00    -0.000 A 
ATOM     27  CZ  PHE A   5       1.170  10.753  43.727  0.00  0.00    -0.000 A 
ATOM     28  CE1 PHE A   5       1.207  10.698  42.314  0.00  0.00    -0.000 A 
ATOM     29  CD1 PHE A   5       0.611  11.707  41.564  0.00  0.00    -0.004 A 
ENDBRANCH  23  24
ENDBRANCH   6  23
ENDBRANCH   3   6
ENDBRANCH   1   2
BRANCH   1  32
ATOM     30  C   LEU A   3      -4.851  16.884  40.230  0.00  0.00    +0.241 C 
ATOM     31  O   LEU A   3      -5.607  16.059  40.775  0.00  0.00    -0.273 OA
ATOM     32  N   GLY A   4      -4.176  16.625  39.107  0.00  0.00    -0.295 N 
ATOM     33  H   GLY A   4      -3.557  17.362  38.713  0.00  0.00    +0.150 HD
BRANCH  30  34
ATOM     34  CA  LEU A   3      -4.641  18.274  40.838  0.00  0.00    +0.149 C 
BRANCH  34  37
ATOM     35  C   GLN A   2      -2.302  17.823  41.397  0.00  0.00    +0.241 C 
ATOM     36  O   GLN A   2      -2.601  16.787  41.995  0.00  0.00    -0.273 OA
ATOM     37  N   LEU A   3      -3.214  18.632  40.845  0.00  0.00    -0.297 N 
ATOM     38  H   LEU A   3      -2.909  19.528  40.414  0.00  0.00    +0.150 HD
BRANCH  35  39
ATOM     39  CA  GLN A   2      -0.834  18.220  41.275  0.00  0.00    +0.149 C 
BRANCH  39  41
ATOM     40  C   GLY A   1      -0.576  17.847  38.884  0.00  0.00    +0.240 C 
ATOM     41  N   GLN A   2      -0.507  18.680  39.922  0.00  0.00    -0.297 N 
ATOM     42  H   GLN A   2      -0.218  19.667  39.770  0.00  0.00    +0.150 HD
ATOM     43  O   GLY A   1      -0.824  16.643  39.007  0.00  0.00    -0.274 OA
BRANCH  40  44
ATOM     44  CA  GLY A   1      -0.286  18.454  37.504  0.00  0.00    +0.169 C 
BRANCH  44  45
ATOM     45  N   GLY A   1      -0.956  19.734  37.341  0.00  0.00    -0.236 NA
ATOM     46  H   GLY A   1      -0.383  20.580  37.145  0.00  0.00    +0.142 HD
ENDBRANCH  44  45
ENDBRANCH  40  44
ENDBRANCH  39  41
BRANCH  39  47
ATOM     47  CB  GLN A   2      -0.484  19.292  42.284  0.00  0.00    +0.039 C 
BRANCH  47  48
ATOM     48  CG  GLN A   2       1.030  19.462  42.481  0.00  0.00    +0.087 C 
BRANCH  48  49
ATOM     49  CD  GLN A   2       1.665  18.199  43.034  0.00  0.00    +0.219 C 
ATOM     50  OE1 GLN A   2       1.418  17.833  44.173  0.00  0.00    -0.275 OA
ATOM     51  NE2 GLN A   2       2.454  17.491  42.202  0.00  0.00    -0.329 N 
ATOM     52 HE21 GLN A   2       2.878  16.597  42.523  0.00  0.00    +0.145 HD
ATOM     53 HE22 GLN A   2       2.639  17.839  41.239  0.00  0.00    +0.145 HD
ENDBRANCH  48  49
ENDBRANCH  47  48
ENDBRANCH  39  47
ENDBRANCH  35  39
ENDBRANCH  34  37
BRANCH  34  54
ATOM     54  CB  LEU A   3      -5.471  19.293  40.033  0.00  0.00    +0.029 C 
BRANCH  54  55
ATOM     55  CG  LEU A   3      -7.002  19.203  40.130  0.00  0.00    +0.002 C 
ATOM     56  CD2 LEU A   3      -7.404  19.567  41.506  0.00  0.00    +0.000 C 
ATOM     57  CD1 LEU A   3      -7.696  20.129  39.117  0.00  0.00    +0.000 C 
ENDBRANCH  54  55
ENDBRANCH  34  54
ENDBRANCH  30  34
ENDBRANCH   1  32
TORSDOF 22
REMARK  Name = ../refined-set-2016/4lm0/4lm0_pocket.pdb
REMARK  135 active torsions:
REMARK  status: ('A' for Active; 'I' for Inactive)
REMARK    1  A    between atoms: _1  and  _3
REMARK    2  A    between atoms: _3  and  _4
REMARK    3  A    between atoms: _3  and  _6
REMARK    4  A    between atoms: _6  and  _7
REMARK    5  A    between atoms: _12  and  _13
REMARK    6  A    between atoms: _15  and  _17
REMARK    7  A    between atoms: _17  and  _18
REMARK    8  A    between atoms: _17  and  _20
REMARK    9  A    between atoms: _20  and  _21
REMARK   10  A    between atoms: _26  and  _28
REMARK   11  A    between atoms: _28  and  _29
REMARK   12  A    between atoms: _28  and  _31
REMARK   13  A    between atoms: _31  and  _32
REMARK   14  A    between atoms: _36  and  NI_327
REMARK   15  A    between atoms: _37  and  _39
REMARK   16  A    between atoms: _39  and  _40
REMARK   17  A    between atoms: _39  and  _42
REMARK   18  A    between atoms: _42  and  _43
REMARK   19  A    between atoms: _48  and  _50
REMARK   20  A    between atoms: _50  and  _51
REMARK   21  A    between atoms: _50  and  _53
REMARK   22  A    between atoms: _53  and  _54
REMARK   23  A    between atoms: _56  and  _58
REMARK   24  A    between atoms: _58  and  _59
REMARK   25  A    between atoms: _58  and  _61
REMARK   26  A    between atoms: _61  and  _62
REMARK   27  A    between atoms: _67  and  _69
REMARK   28  A    between atoms: _69  and  _70
REMARK   29  A    between atoms: _69  and  _72
REMARK   30  A    between atoms: _72  and  _73
REMARK   31  A    between atoms: _75  and  _77
REMARK   32  A    between atoms: _77  and  _78
REMARK   33  A    between atoms: _77  and  _80
REMARK   34  A    between atoms: _80  and  _81
REMARK   35  A    between atoms: _84  and  _86
REMARK   36  A    between atoms: _86  and  _87
REMARK   37  A    between atoms: _86  and  _89
REMARK   38  A    between atoms: _89  and  _90
REMARK   39  A    between atoms: _93  and  _95
REMARK   40  A    between atoms: _95  and  _96
REMARK   41  A    between atoms: _95  and  _98
REMARK   42  A    between atoms: _98  and  _99
REMARK   43  A    between atoms: _102  and  _104
REMARK   44  A    between atoms: _104  and  _105
REMARK   45  A    between atoms: _108  and  _110
REMARK   46  A    between atoms: _110  and  _111
REMARK   47  A    between atoms: _110  and  _113
REMARK   48  A    between atoms: _113  and  _114
REMARK   49  A    between atoms: _120  and  _122
REMARK   50  A    between atoms: _122  and  _123
REMARK   51  A    between atoms: _122  and  _125
REMARK   52  A    between atoms: _125  and  _126
REMARK   53  A    between atoms: _126  and  _128
REMARK   54  A    between atoms: _128  and  NI_327
REMARK   55  A    between atoms: _129  and  _131
REMARK   56  A    between atoms: _131  and  _132
REMARK   57  A    between atoms: _131  and  _134
REMARK   58  A    between atoms: _134  and  _135
REMARK   59  A    between atoms: _138  and  _140
REMARK   60  A    between atoms: _140  and  _141
REMARK   61  A    between atoms: _140  and  _143
REMARK   62  A    between atoms: _143  and  _144
REMARK   63  A    between atoms: _146  and  _148
REMARK   64  A    between atoms: _148  and  _149
REMARK   65  A    between atoms: _148  and  _151
REMARK   66  A    between atoms: _154  and  _156
REMARK   67  A    between atoms: _156  and  _157
REMARK   68  A    between atoms: _160  and  _162
REMARK   69  A    between atoms: _162  and  _163
REMARK   70  A    between atoms: _162  and  _165
REMARK   71  A    between atoms: _165  and  _166
REMARK   72  A    between atoms: _169  and  _171
REMARK   73  A    between atoms: _171  and  _172
REMARK   74  A    between atoms: _171  and  _174
REMARK   75  A    between atoms: _174  and  _175
REMARK   76  A    between atoms: _180  and  _181
REMARK   77  A    between atoms: _183  and  _185
REMARK   78  A    between atoms: _185  and  _186
REMARK   79  A    between atoms: _185  and  _188
REMARK   80  A    between atoms: _188  and  _189
REMARK   81  A    between atoms: _189  and  _190
REMARK   82  A    between atoms: _193  and  _195
REMARK   83  A    between atoms: _195  and  _196
REMARK   84  A    between atoms: _195  and  _198
REMARK   85  A    between atoms: _198  and  _199
REMARK   86  A    between atoms: _205  and  _207
REMARK   87  A    between atoms: _207  and  _208
REMARK   88  A    between atoms: _207  and  _210
REMARK   89  A    between atoms: _210  and  _211
REMARK   90  A    between atoms: _214  and  _216
REMARK   91  A    between atoms: _216  and  _217
REMARK   92  A    between atoms: _216  and  _219
REMARK   93  A    between atoms: _219  and  _220
REMARK   94  A    between atoms: _220  and  _221
REMARK   95  A    between atoms: _223  and  _225
REMARK   96  A    between atoms: _225  and  _226
REMARK   97  A    between atoms: _225  and  _228
REMARK   98  A    between atoms: _228  and  _229
REMARK   99  A    between atoms: _229  and  _230
REMARK  100  A    between atoms: _232  and  _234
REMARK  101  A    between atoms: _234  and  _235
REMARK  102  A    between atoms: _234  and  _237
REMARK  103  A    between atoms: _240  and  _242
REMARK  104  A    between atoms: _242  and  _243
REMARK  105  A    between atoms: _245  and  _247
REMARK  106  A    between atoms: _247  and  _248
REMARK  107  A    between atoms: _247  and  _250
REMARK  108  A    between atoms: _250  and  _251
REMARK  109  A    between atoms: _251  and  _252
REMARK  110  A    between atoms: _257  and  _259
REMARK  111  A    between atoms: _259  and  _260
REMARK  112  A    between atoms: _259  and  _262
REMARK  113  A    between atoms: _262  and  _263
REMARK  114  A    between atoms: _266  and  _268
REMARK  115  A    between atoms: _268  and  _269
REMARK  116  A    between atoms: _271  and  _273
REMARK  117  A    between atoms: _273  and  _274
REMARK  118  A    between atoms: _273  and  _276
REMARK  119  A    between atoms: _276  and  _277
REMARK  120  A    between atoms: _283  and  _285
REMARK  121  A    between atoms: _285  and  _286
REMARK  122  A    between atoms: _285  and  _288
REMARK  123  A    between atoms: _288  and  _289
REMARK  124  A    between atoms: _294  and  _295
REMARK  125  A    between atoms: _297  and  _299
REMARK  126  A    between atoms: _299  and  _300
REMARK  127  A    between atoms: _299  and  _302
REMARK  128  A    between atoms: _305  and  _307
REMARK  129  A    between atoms: _307  and  _308
REMARK  130  A    between atoms: _311  and  _313
REMARK  131  A    between atoms: _313  and  _314
REMARK  132  A    between atoms: _313  and  _316
REMARK  133  A    between atoms: _316  and  _317
REMARK  134  A    between atoms: NI_327  and  _345
REMARK  135  A    between atoms: NI_328  and  _345
REMARK                            x       y       z     vdW  Elec       q    Type
REMARK                         _______ _______ _______ _____ _____    ______ ____
ROOT
ATOM      1  C   VAL A   1      -3.952   8.761  44.252  0.00  0.00    +0.238 C 
ATOM      2  O   VAL A   1      -4.394   7.824  44.893  0.00  0.00    -0.274 OA
ATOM      3  N   ALA A   2      -3.729   9.961  44.800  0.00  0.00    -0.298 N 
ATOM      4  H   ALA A   2      -3.572  10.792  44.195  0.00  0.00    +0.150 HD
ENDROOT
BRANCH   3   5
ATOM      5  CA  ALA A   2      -3.708  10.097  46.279  0.00  0.00    +0.137 C 
ATOM      6  CB  ALA A   2      -3.064  11.432  46.705  0.00  0.00    +0.030 C 
BRANCH   5   7
ATOM      7  C   ALA A   2      -5.110   9.936  46.897  0.00  0.00    +0.227 C 
ATOM      8  O   ALA A   2      -5.303   9.138  47.824  0.00  0.00    -0.286 OA
ENDBRANCH   5   7
ENDBRANCH   3   5
BRANCH   1   9
ATOM      9  CA  VAL A   1      -3.607   8.550  42.760  0.00  0.00    +0.145 C 
BRANCH   9  10
ATOM     10  CB  VAL A   1      -2.074   8.748  42.522  0.00  0.00    +0.025 C 
ATOM     11  CG2 VAL A   1      -1.240   7.772  43.385  0.00  0.00    +0.002 C 
ATOM     12  CG1 VAL A   1      -1.702   8.566  41.032  0.00  0.00    +0.002 C 
ENDBRANCH   9  10
BRANCH   9  13
ATOM     13  N   VAL A   1      -4.413   9.406  41.920  0.00  0.00    -0.238 NA
ATOM     14  H   VAL A   1      -4.431  10.430  42.103  0.00  0.00    +0.142 HD
ENDBRANCH   9  13
ENDBRANCH   1   9
TORSDOF 5
REMARK  Name = ../refined-set-2016/4lm0/4lm0_pocket.pdb
REMARK  135 active torsions:
REMARK  status: ('A' for Active; 'I' for Inactive)
REMARK    1  A    between atoms: _1  and  _3
REMARK    2  A    between atoms: _3  and  _4
REMARK    3  A    between atoms: _3  and  _6
REMARK    4  A    between atoms: _6  and  _7
REMARK    5  A    between atoms: _12  and  _13
REMARK    6  A    between atoms: _15  and  _17
REMARK    7  A    between atoms: _17  and  _18
REMARK    8  A    between atoms: _17  and  _20
REMARK    9  A    between atoms: _20  and  _21
REMARK   10  A    between atoms: _26  and  _28
REMARK   11  A    between atoms: _28  and  _29
REMARK   12  A    between atoms: _28  and  _31
REMARK   13  A    between atoms: _31  and  _32
REMARK   14  A    between atoms: _36  and  NI_327
REMARK   15  A    between atoms: _37  and  _39
REMARK   16  A    between atoms: _39  and  _40
REMARK   17  A    between atoms: _39  and  _42
REMARK   18  A    between atoms: _42  and  _43
REMARK   19  A    between atoms: _48  and  _50
REMARK   20  A    between atoms: _50  and  _51
REMARK   21  A    between atoms: _50  and  _53
REMARK   22  A    between atoms: _53  and  _54
REMARK   23  A    between atoms: _56  and  _58
REMARK   24  A    between atoms: _58  and  _59
REMARK   25  A    between atoms: _58  and  _61
REMARK   26  A    between atoms: _61  and  _62
REMARK   27  A    between atoms: _67  and  _69
REMARK   28  A    between atoms: _69  and  _70
REMARK   29  A    between atoms: _69  and  _72
REMARK   30  A    between atoms: _72  and  _73
REMARK   31  A    between atoms: _75  and  _77
REMARK   32  A    between atoms: _77  and  _78
REMARK   33  A    between atoms: _77  and  _80
REMARK   34  A    between atoms: _80  and  _81
REMARK   35  A    between atoms: _84  and  _86
REMARK   36  A    between atoms: _86  and  _87
REMARK   37  A    between atoms: _86  and  _89
REMARK   38  A    between atoms: _89  and  _90
REMARK   39  A    between atoms: _93  and  _95
REMARK   40  A    between atoms: _95  and  _96
REMARK   41  A    between atoms: _95  and  _98
REMARK   42  A    between atoms: _98  and  _99
REMARK   43  A    between atoms: _102  and  _104
REMARK   44  A    between atoms: _104  and  _105
REMARK   45  A    between atoms: _108  and  _110
REMARK   46  A    between atoms: _110  and  _111
REMARK   47  A    between atoms: _110  and  _113
REMARK   48  A    between atoms: _113  and  _114
REMARK   49  A    between atoms: _120  and  _122
REMARK   50  A    between atoms: _122  and  _123
REMARK   51  A    between atoms: _122  and  _125
REMARK   52  A    between atoms: _125  and  _126
REMARK   53  A    between atoms: _126  and  _128
REMARK   54  A    between atoms: _128  and  NI_327
REMARK   55  A    between atoms: _129  and  _131
REMARK   56  A    between atoms: _131  and  _132
REMARK   57  A    between atoms: _131  and  _134
REMARK   58  A    between atoms: _134  and  _135
REMARK   59  A    between atoms: _138  and  _140
REMARK   60  A    between atoms: _140  and  _141
REMARK   61  A    between atoms: _140  and  _143
REMARK   62  A    between atoms: _143  and  _144
REMARK   63  A    between atoms: _146  and  _148
REMARK   64  A    between atoms: _148  and  _149
REMARK   65  A    between atoms: _148  and  _151
REMARK   66  A    between atoms: _154  and  _156
REMARK   67  A    between atoms: _156  and  _157
REMARK   68  A    between atoms: _160  and  _162
REMARK   69  A    between atoms: _162  and  _163
REMARK   70  A    between atoms: _162  and  _165
REMARK   71  A    between atoms: _165  and  _166
REMARK   72  A    between atoms: _169  and  _171
REMARK   73  A    between atoms: _171  and  _172
REMARK   74  A    between atoms: _171  and  _174
REMARK   75  A    between atoms: _174  and  _175
REMARK   76  A    between atoms: _180  and  _181
REMARK   77  A    between atoms: _183  and  _185
REMARK   78  A    between atoms: _185  and  _186
REMARK   79  A    between atoms: _185  and  _188
REMARK   80  A    between atoms: _188  and  _189
REMARK   81  A    between atoms: _189  and  _190
REMARK   82  A    between atoms: _193  and  _195
REMARK   83  A    between atoms: _195  and  _196
REMARK   84  A    between atoms: _195  and  _198
REMARK   85  A    between atoms: _198  and  _199
REMARK   86  A    between atoms: _205  and  _207
REMARK   87  A    between atoms: _207  and  _208
REMARK   88  A    between atoms: _207  and  _210
REMARK   89  A    between atoms: _210  and  _211
REMARK   90  A    between atoms: _214  and  _216
REMARK   91  A    between atoms: _216  and  _217
REMARK   92  A    between atoms: _216  and  _219
REMARK   93  A    between atoms: _219  and  _220
REMARK   94  A    between atoms: _220  and  _221
REMARK   95  A    between atoms: _223  and  _225
REMARK   96  A    between atoms: _225  and  _226
REMARK   97  A    between atoms: _225  and  _228
REMARK   98  A    between atoms: _228  and  _229
REMARK   99  A    between atoms: _229  and  _230
REMARK  100  A    between atoms: _232  and  _234
REMARK  101  A    between atoms: _234  and  _235
REMARK  102  A    between atoms: _234  and  _237
REMARK  103  A    between atoms: _240  and  _242
REMARK  104  A    between atoms: _242  and  _243
REMARK  105  A    between atoms: _245  and  _247
REMARK  106  A    between atoms: _247  and  _248
REMARK  107  A    between atoms: _247  and  _250
REMARK  108  A    between atoms: _250  and  _251
REMARK  109  A    between atoms: _251  and  _252
REMARK  110  A    between atoms: _257  and  _259
REMARK  111  A    between atoms: _259  and  _260
REMARK  112  A    between atoms: _259  and  _262
REMARK  113  A    between atoms: _262  and  _263
REMARK  114  A    between atoms: _266  and  _268
REMARK  115  A    between atoms: _268  and  _269
REMARK  116  A    between atoms: _271  and  _273
REMARK  117  A    between atoms: _273  and  _274
REMARK  118  A    between atoms: _273  and  _276
REMARK  119  A    between atoms: _276  and  _277
REMARK  120  A    between atoms: _283  and  _285
REMARK  121  A    between atoms: _285  and  _286
REMARK  122  A    between atoms: _285  and  _288
REMARK  123  A    between atoms: _288  and  _289
REMARK  124  A    between atoms: _294  and  _295
REMARK  125  A    between atoms: _297  and  _299
REMARK  126  A    between atoms: _299  and  _300
REMARK  127  A    between atoms: _299  and  _302
REMARK  128  A    between atoms: _305  and  _307
REMARK  129  A    between atoms: _307  and  _308
REMARK  130  A    between atoms: _311  and  _313
REMARK  131  A    between atoms: _313  and  _314
REMARK  132  A    between atoms: _313  and  _316
REMARK  133  A    between atoms: _316  and  _317
REMARK  134  A    between atoms: NI_327  and  _345
REMARK  135  A    between atoms: NI_328  and  _345
REMARK                            x       y       z     vdW  Elec       q    Type
REMARK                         _______ _______ _______ _____ _____    ______ ____
ROOT
ATOM      1  CG  TRP A   1      -2.376  21.263  45.090  0.00  0.00    -0.002 A 
ATOM      2  CD1 TRP A   1      -2.127  20.233  45.937  0.00  0.00    +0.068 A 
ATOM      3  NE1 TRP A   1      -0.759  20.186  46.237  0.00  0.00    -0.352 N 
ATOM      4  HE1 TRP A   1      -0.300  19.512  46.883  0.00  0.00    +0.166 HD
ATOM      5  CE2 TRP A   1      -0.131  21.176  45.537  0.00  0.00    +0.056 A 
ATOM      6  CZ2 TRP A   1       1.241  21.515  45.473  0.00  0.00    +0.017 A 
ATOM      7  CH2 TRP A   1       1.586  22.580  44.683  0.00  0.00    +0.001 A 
ATOM      8  CZ3 TRP A   1       0.643  23.286  43.951  0.00  0.00    +0.000 A 
ATOM      9  CE3 TRP A   1      -0.710  22.953  44.000  0.00  0.00    +0.001 A 
ATOM     10  CD2 TRP A   1      -1.108  21.865  44.795  0.00  0.00    +0.013 A 
ENDROOT
BRANCH   1  11
ATOM     11  CB  TRP A   1      -3.739  21.696  44.534  0.00  0.00    +0.053 C 
BRANCH  11  12
ATOM     12  CA  TRP A   1      -4.142  23.078  45.068  0.00  0.00    +0.137 C 
BRANCH  12  13
ATOM     13  N   TRP A   1      -4.563  23.016  46.460  0.00  0.00    -0.239 NA
ATOM     14  H   TRP A   1      -4.689  22.094  46.924  0.00  0.00    +0.142 HD
ENDBRANCH  12  13
BRANCH  12  15
ATOM     15  C   TRP A   1      -5.210  23.739  44.200  0.00  0.00    +0.224 C 
ATOM     16  O   TRP A   1      -4.873  24.503  43.289  0.00  0.00    -0.287 OA
ENDBRANCH  12  15
ENDBRANCH  11  12
ENDBRANCH   1  11
TORSDOF 4
REMARK  Name = ../refined-set-2016/4lm0/4lm0_pocket.pdb
REMARK  135 active torsions:
REMARK  status: ('A' for Active; 'I' for Inactive)
REMARK    1  A    between atoms: _1  and  _3
REMARK    2  A    between atoms: _3  and  _4
REMARK    3  A    between atoms: _3  and  _6
REMARK    4  A    between atoms: _6  and  _7
REMARK    5  A    between atoms: _12  and  _13
REMARK    6  A    between atoms: _15  and  _17
REMARK    7  A    between atoms: _17  and  _18
REMARK    8  A    between atoms: _17  and  _20
REMARK    9  A    between atoms: _20  and  _21
REMARK   10  A    between atoms: _26  and  _28
REMARK   11  A    between atoms: _28  and  _29
REMARK   12  A    between atoms: _28  and  _31
REMARK   13  A    between atoms: _31  and  _32
REMARK   14  A    between atoms: _36  and  NI_327
REMARK   15  A    between atoms: _37  and  _39
REMARK   16  A    between atoms: _39  and  _40
REMARK   17  A    between atoms: _39  and  _42
REMARK   18  A    between atoms: _42  and  _43
REMARK   19  A    between atoms: _48  and  _50
REMARK   20  A    between atoms: _50  and  _51
REMARK   21  A    between atoms: _50  and  _53
REMARK   22  A    between atoms: _53  and  _54
REMARK   23  A    between atoms: _56  and  _58
REMARK   24  A    between atoms: _58  and  _59
REMARK   25  A    between atoms: _58  and  _61
REMARK   26  A    between atoms: _61  and  _62
REMARK   27  A    between atoms: _67  and  _69
REMARK   28  A    between atoms: _69  and  _70
REMARK   29  A    between atoms: _69  and  _72
REMARK   30  A    between atoms: _72  and  _73
REMARK   31  A    between atoms: _75  and  _77
REMARK   32  A    between atoms: _77  and  _78
REMARK   33  A    between atoms: _77  and  _80
REMARK   34  A    between atoms: _80  and  _81
REMARK   35  A    between atoms: _84  and  _86
REMARK   36  A    between atoms: _86  and  _87
REMARK   37  A    between atoms: _86  and  _89
REMARK   38  A    between atoms: _89  and  _90
REMARK   39  A    between atoms: _93  and  _95
REMARK   40  A    between atoms: _95  and  _96
REMARK   41  A    between atoms: _95  and  _98
REMARK   42  A    between atoms: _98  and  _99
REMARK   43  A    between atoms: _102  and  _104
REMARK   44  A    between atoms: _104  and  _105
REMARK   45  A    between atoms: _108  and  _110
REMARK   46  A    between atoms: _110  and  _111
REMARK   47  A    between atoms: _110  and  _113
REMARK   48  A    between atoms: _113  and  _114
REMARK   49  A    between atoms: _120  and  _122
REMARK   50  A    between atoms: _122  and  _123
REMARK   51  A    between atoms: _122  and  _125
REMARK   52  A    between atoms: _125  and  _126
REMARK   53  A    between atoms: _126  and  _128
REMARK   54  A    between atoms: _128  and  NI_327
REMARK   55  A    between atoms: _129  and  _131
REMARK   56  A    between atoms: _131  and  _132
REMARK   57  A    between atoms: _131  and  _134
REMARK   58  A    between atoms: _134  and  _135
REMARK   59  A    between atoms: _138  and  _140
REMARK   60  A    between atoms: _140  and  _141
REMARK   61  A    between atoms: _140  and  _143
REMARK   62  A    between atoms: _143  and  _144
REMARK   63  A    between atoms: _146  and  _148
REMARK   64  A    between atoms: _148  and  _149
REMARK   65  A    between atoms: _148  and  _151
REMARK   66  A    between atoms: _154  and  _156
REMARK   67  A    between atoms: _156  and  _157
REMARK   68  A    between atoms: _160  and  _162
REMARK   69  A    between atoms: _162  and  _163
REMARK   70  A    between atoms: _162  and  _165
REMARK   71  A    between atoms: _165  and  _166
REMARK   72  A    between atoms: _169  and  _171
REMARK   73  A    between atoms: _171  and  _172
REMARK   74  A    between atoms: _171  and  _174
REMARK   75  A    between atoms: _174  and  _175
REMARK   76  A    between atoms: _180  and  _181
REMARK   77  A    between atoms: _183  and  _185
REMARK   78  A    between atoms: _185  and  _186
REMARK   79  A    between atoms: _185  and  _188
REMARK   80  A    between atoms: _188  and  _189
REMARK   81  A    between atoms: _189  and  _190
REMARK   82  A    between atoms: _193  and  _195
REMARK   83  A    between atoms: _195  and  _196
REMARK   84  A    between atoms: _195  and  _198
REMARK   85  A    between atoms: _198  and  _199
REMARK   86  A    between atoms: _205  and  _207
REMARK   87  A    between atoms: _207  and  _208
REMARK   88  A    between atoms: _207  and  _210
REMARK   89  A    between atoms: _210  and  _211
REMARK   90  A    between atoms: _214  and  _216
REMARK   91  A    between atoms: _216  and  _217
REMARK   92  A    between atoms: _216  and  _219
REMARK   93  A    between atoms: _219  and  _220
REMARK   94  A    between atoms: _220  and  _221
REMARK   95  A    between atoms: _223  and  _225
REMARK   96  A    between atoms: _225  and  _226
REMARK   97  A    between atoms: _225  and  _228
REMARK   98  A    between atoms: _228  and  _229
REMARK   99  A    between atoms: _229  and  _230
REMARK  100  A    between atoms: _232  and  _234
REMARK  101  A    between atoms: _234  and  _235
REMARK  102  A    between atoms: _234  and  _237
REMARK  103  A    between atoms: _240  and  _242
REMARK  104  A    between atoms: _242  and  _243
REMARK  105  A    between atoms: _245  and  _247
REMARK  106  A    between atoms: _247  and  _248
REMARK  107  A    between atoms: _247  and  _250
REMARK  108  A    between atoms: _250  and  _251
REMARK  109  A    between atoms: _251  and  _252
REMARK  110  A    between atoms: _257  and  _259
REMARK  111  A    between atoms: _259  and  _260
REMARK  112  A    between atoms: _259  and  _262
REMARK  113  A    between atoms: _262  and  _263
REMARK  114  A    between atoms: _266  and  _268
REMARK  115  A    between atoms: _268  and  _269
REMARK  116  A    between atoms: _271  and  _273
REMARK  117  A    between atoms: _273  and  _274
REMARK  118  A    between atoms: _273  and  _276
REMARK  119  A    between atoms: _276  and  _277
REMARK  120  A    between atoms: _283  and  _285
REMARK  121  A    between atoms: _285  and  _286
REMARK  122  A    between atoms: _285  and  _288
REMARK  123  A    between atoms: _288  and  _289
REMARK  124  A    between atoms: _294  and  _295
REMARK  125  A    between atoms: _297  and  _299
REMARK  126  A    between atoms: _299  and  _300
REMARK  127  A    between atoms: _299  and  _302
REMARK  128  A    between atoms: _305  and  _307
REMARK  129  A    between atoms: _307  and  _308
REMARK  130  A    between atoms: _311  and  _313
REMARK  131  A    between atoms: _313  and  _314
REMARK  132  A    between atoms: _313  and  _316
REMARK  133  A    between atoms: _316  and  _317
REMARK  134  A    between atoms: NI_327  and  _345
REMARK  135  A    between atoms: NI_328  and  _345
REMARK                            x       y       z     vdW  Elec       q    Type
REMARK                         _______ _______ _______ _____ _____    ______ ____
ROOT
ATOM      1  O   HOH     1       8.820   8.074  46.704  0.00  0.00    +0.000 OA
ENDROOT
TORSDOF 0
REMARK  Name = ../refined-set-2016/4lm0/4lm0_pocket.pdb
REMARK  135 active torsions:
REMARK  status: ('A' for Active; 'I' for Inactive)
REMARK    1  A    between atoms: _1  and  _3
REMARK    2  A    between atoms: _3  and  _4
REMARK    3  A    between atoms: _3  and  _6
REMARK    4  A    between atoms: _6  and  _7
REMARK    5  A    between atoms: _12  and  _13
REMARK    6  A    between atoms: _15  and  _17
REMARK    7  A    between atoms: _17  and  _18
REMARK    8  A    between atoms: _17  and  _20
REMARK    9  A    between atoms: _20  and  _21
REMARK   10  A    between atoms: _26  and  _28
REMARK   11  A    between atoms: _28  and  _29
REMARK   12  A    between atoms: _28  and  _31
REMARK   13  A    between atoms: _31  and  _32
REMARK   14  A    between atoms: _36  and  NI_327
REMARK   15  A    between atoms: _37  and  _39
REMARK   16  A    between atoms: _39  and  _40
REMARK   17  A    between atoms: _39  and  _42
REMARK   18  A    between atoms: _42  and  _43
REMARK   19  A    between atoms: _48  and  _50
REMARK   20  A    between atoms: _50  and  _51
REMARK   21  A    between atoms: _50  and  _53
REMARK   22  A    between atoms: _53  and  _54
REMARK   23  A    between atoms: _56  and  _58
REMARK   24  A    between atoms: _58  and  _59
REMARK   25  A    between atoms: _58  and  _61
REMARK   26  A    between atoms: _61  and  _62
REMARK   27  A    between atoms: _67  and  _69
REMARK   28  A    between atoms: _69  and  _70
REMARK   29  A    between atoms: _69  and  _72
REMARK   30  A    between atoms: _72  and  _73
REMARK   31  A    between atoms: _75  and  _77
REMARK   32  A    between atoms: _77  and  _78
REMARK   33  A    between atoms: _77  and  _80
REMARK   34  A    between atoms: _80  and  _81
REMARK   35  A    between atoms: _84  and  _86
REMARK   36  A    between atoms: _86  and  _87
REMARK   37  A    between atoms: _86  and  _89
REMARK   38  A    between atoms: _89  and  _90
REMARK   39  A    between atoms: _93  and  _95
REMARK   40  A    between atoms: _95  and  _96
REMARK   41  A    between atoms: _95  and  _98
REMARK   42  A    between atoms: _98  and  _99
REMARK   43  A    between atoms: _102  and  _104
REMARK   44  A    between atoms: _104  and  _105
REMARK   45  A    between atoms: _108  and  _110
REMARK   46  A    between atoms: _110  and  _111
REMARK   47  A    between atoms: _110  and  _113
REMARK   48  A    between atoms: _113  and  _114
REMARK   49  A    between atoms: _120  and  _122
REMARK   50  A    between atoms: _122  and  _123
REMARK   51  A    between atoms: _122  and  _125
REMARK   52  A    between atoms: _125  and  _126
REMARK   53  A    between atoms: _126  and  _128
REMARK   54  A    between atoms: _128  and  NI_327
REMARK   55  A    between atoms: _129  and  _131
REMARK   56  A    between atoms: _131  and  _132
REMARK   57  A    between atoms: _131  and  _134
REMARK   58  A    between atoms: _134  and  _135
REMARK   59  A    between atoms: _138  and  _140
REMARK   60  A    between atoms: _140  and  _141
REMARK   61  A    between atoms: _140  and  _143
REMARK   62  A    between atoms: _143  and  _144
REMARK   63  A    between atoms: _146  and  _148
REMARK   64  A    between atoms: _148  and  _149
REMARK   65  A    between atoms: _148  and  _151
REMARK   66  A    between atoms: _154  and  _156
REMARK   67  A    between atoms: _156  and  _157
REMARK   68  A    between atoms: _160  and  _162
REMARK   69  A    between atoms: _162  and  _163
REMARK   70  A    between atoms: _162  and  _165
REMARK   71  A    between atoms: _165  and  _166
REMARK   72  A    between atoms: _169  and  _171
REMARK   73  A    between atoms: _171  and  _172
REMARK   74  A    between atoms: _171  and  _174
REMARK   75  A    between atoms: _174  and  _175
REMARK   76  A    between atoms: _180  and  _181
REMARK   77  A    between atoms: _183  and  _185
REMARK   78  A    between atoms: _185  and  _186
REMARK   79  A    between atoms: _185  and  _188
REMARK   80  A    between atoms: _188  and  _189
REMARK   81  A    between atoms: _189  and  _190
REMARK   82  A    between atoms: _193  and  _195
REMARK   83  A    between atoms: _195  and  _196
REMARK   84  A    between atoms: _195  and  _198
REMARK   85  A    between atoms: _198  and  _199
REMARK   86  A    between atoms: _205  and  _207
REMARK   87  A    between atoms: _207  and  _208
REMARK   88  A    between atoms: _207  and  _210
REMARK   89  A    between atoms: _210  and  _211
REMARK   90  A    between atoms: _214  and  _216
REMARK   91  A    between atoms: _216  and  _217
REMARK   92  A    between atoms: _216  and  _219
REMARK   93  A    between atoms: _219  and  _220
REMARK   94  A    between atoms: _220  and  _221
REMARK   95  A    between atoms: _223  and  _225
REMARK   96  A    between atoms: _225  and  _226
REMARK   97  A    between atoms: _225  and  _228
REMARK   98  A    between atoms: _228  and  _229
REMARK   99  A    between atoms: _229  and  _230
REMARK  100  A    between atoms: _232  and  _234
REMARK  101  A    between atoms: _234  and  _235
REMARK  102  A    between atoms: _234  and  _237
REMARK  103  A    between atoms: _240  and  _242
REMARK  104  A    between atoms: _242  and  _243
REMARK  105  A    between atoms: _245  and  _247
REMARK  106  A    between atoms: _247  and  _248
REMARK  107  A    between atoms: _247  and  _250
REMARK  108  A    between atoms: _250  and  _251
REMARK  109  A    between atoms: _251  and  _252
REMARK  110  A    between atoms: _257  and  _259
REMARK  111  A    between atoms: _259  and  _260
REMARK  112  A    between atoms: _259  and  _262
REMARK  113  A    between atoms: _262  and  _263
REMARK  114  A    between atoms: _266  and  _268
REMARK  115  A    between atoms: _268  and  _269
REMARK  116  A    between atoms: _271  and  _273
REMARK  117  A    between atoms: _273  and  _274
REMARK  118  A    between atoms: _273  and  _276
REMARK  119  A    between atoms: _276  and  _277
REMARK  120  A    between atoms: _283  and  _285
REMARK  121  A    between atoms: _285  and  _286
REMARK  122  A    between atoms: _285  and  _288
REMARK  123  A    between atoms: _288  and  _289
REMARK  124  A    between atoms: _294  and  _295
REMARK  125  A    between atoms: _297  and  _299
REMARK  126  A    between atoms: _299  and  _300
REMARK  127  A    between atoms: _299  and  _302
REMARK  128  A    between atoms: _305  and  _307
REMARK  129  A    between atoms: _307  and  _308
REMARK  130  A    between atoms: _311  and  _313
REMARK  131  A    between atoms: _313  and  _314
REMARK  132  A    between atoms: _313  and  _316
REMARK  133  A    between atoms: _316  and  _317
REMARK  134  A    between atoms: NI_327  and  _345
REMARK  135  A    between atoms: NI_328  and  _345
REMARK                            x       y       z     vdW  Elec       q    Type
REMARK                         _______ _______ _______ _____ _____    ______ ____
ROOT
ATOM      1  O   HOH     1       5.526  11.497  50.782  0.00  0.00    +0.000 OA
ENDROOT
TORSDOF 0
REMARK  Name = ../refined-set-2016/4lm0/4lm0_pocket.pdb
REMARK  135 active torsions:
REMARK  status: ('A' for Active; 'I' for Inactive)
REMARK    1  A    between atoms: _1  and  _3
REMARK    2  A    between atoms: _3  and  _4
REMARK    3  A    between atoms: _3  and  _6
REMARK    4  A    between atoms: _6  and  _7
REMARK    5  A    between atoms: _12  and  _13
REMARK    6  A    between atoms: _15  and  _17
REMARK    7  A    between atoms: _17  and  _18
REMARK    8  A    between atoms: _17  and  _20
REMARK    9  A    between atoms: _20  and  _21
REMARK   10  A    between atoms: _26  and  _28
REMARK   11  A    between atoms: _28  and  _29
REMARK   12  A    between atoms: _28  and  _31
REMARK   13  A    between atoms: _31  and  _32
REMARK   14  A    between atoms: _36  and  NI_327
REMARK   15  A    between atoms: _37  and  _39
REMARK   16  A    between atoms: _39  and  _40
REMARK   17  A    between atoms: _39  and  _42
REMARK   18  A    between atoms: _42  and  _43
REMARK   19  A    between atoms: _48  and  _50
REMARK   20  A    between atoms: _50  and  _51
REMARK   21  A    between atoms: _50  and  _53
REMARK   22  A    between atoms: _53  and  _54
REMARK   23  A    between atoms: _56  and  _58
REMARK   24  A    between atoms: _58  and  _59
REMARK   25  A    between atoms: _58  and  _61
REMARK   26  A    between atoms: _61  and  _62
REMARK   27  A    between atoms: _67  and  _69
REMARK   28  A    between atoms: _69  and  _70
REMARK   29  A    between atoms: _69  and  _72
REMARK   30  A    between atoms: _72  and  _73
REMARK   31  A    between atoms: _75  and  _77
REMARK   32  A    between atoms: _77  and  _78
REMARK   33  A    between atoms: _77  and  _80
REMARK   34  A    between atoms: _80  and  _81
REMARK   35  A    between atoms: _84  and  _86
REMARK   36  A    between atoms: _86  and  _87
REMARK   37  A    between atoms: _86  and  _89
REMARK   38  A    between atoms: _89  and  _90
REMARK   39  A    between atoms: _93  and  _95
REMARK   40  A    between atoms: _95  and  _96
REMARK   41  A    between atoms: _95  and  _98
REMARK   42  A    between atoms: _98  and  _99
REMARK   43  A    between atoms: _102  and  _104
REMARK   44  A    between atoms: _104  and  _105
REMARK   45  A    between atoms: _108  and  _110
REMARK   46  A    between atoms: _110  and  _111
REMARK   47  A    between atoms: _110  and  _113
REMARK   48  A    between atoms: _113  and  _114
REMARK   49  A    between atoms: _120  and  _122
REMARK   50  A    between atoms: _122  and  _123
REMARK   51  A    between atoms: _122  and  _125
REMARK   52  A    between atoms: _125  and  _126
REMARK   53  A    between atoms: _126  and  _128
REMARK   54  A    between atoms: _128  and  NI_327
REMARK   55  A    between atoms: _129  and  _131
REMARK   56  A    between atoms: _131  and  _132
REMARK   57  A    between atoms: _131  and  _134
REMARK   58  A    between atoms: _134  and  _135
REMARK   59  A    between atoms: _138  and  _140
REMARK   60  A    between atoms: _140  and  _141
REMARK   61  A    between atoms: _140  and  _143
REMARK   62  A    between atoms: _143  and  _144
REMARK   63  A    between atoms: _146  and  _148
REMARK   64  A    between atoms: _148  and  _149
REMARK   65  A    between atoms: _148  and  _151
REMARK   66  A    between atoms: _154  and  _156
REMARK   67  A    between atoms: _156  and  _157
REMARK   68  A    between atoms: _160  and  _162
REMARK   69  A    between atoms: _162  and  _163
REMARK   70  A    between atoms: _162  and  _165
REMARK   71  A    between atoms: _165  and  _166
REMARK   72  A    between atoms: _169  and  _171
REMARK   73  A    between atoms: _171  and  _172
REMARK   74  A    between atoms: _171  and  _174
REMARK   75  A    between atoms: _174  and  _175
REMARK   76  A    between atoms: _180  and  _181
REMARK   77  A    between atoms: _183  and  _185
REMARK   78  A    between atoms: _185  and  _186
REMARK   79  A    between atoms: _185  and  _188
REMARK   80  A    between atoms: _188  and  _189
REMARK   81  A    between atoms: _189  and  _190
REMARK   82  A    between atoms: _193  and  _195
REMARK   83  A    between atoms: _195  and  _196
REMARK   84  A    between atoms: _195  and  _198
REMARK   85  A    between atoms: _198  and  _199
REMARK   86  A    between atoms: _205  and  _207
REMARK   87  A    between atoms: _207  and  _208
REMARK   88  A    between atoms: _207  and  _210
REMARK   89  A    between atoms: _210  and  _211
REMARK   90  A    between atoms: _214  and  _216
REMARK   91  A    between atoms: _216  and  _217
REMARK   92  A    between atoms: _216  and  _219
REMARK   93  A    between atoms: _219  and  _220
REMARK   94  A    between atoms: _220  and  _221
REMARK   95  A    between atoms: _223  and  _225
REMARK   96  A    between atoms: _225  and  _226
REMARK   97  A    between atoms: _225  and  _228
REMARK   98  A    between atoms: _228  and  _229
REMARK   99  A    between atoms: _229  and  _230
REMARK  100  A    between atoms: _232  and  _234
REMARK  101  A    between atoms: _234  and  _235
REMARK  102  A    between atoms: _234  and  _237
REMARK  103  A    between atoms: _240  and  _242
REMARK  104  A    between atoms: _242  and  _243
REMARK  105  A    between atoms: _245  and  _247
REMARK  106  A    between atoms: _247  and  _248
REMARK  107  A    between atoms: _247  and  _250
REMARK  108  A    between atoms: _250  and  _251
REMARK  109  A    between atoms: _251  and  _252
REMARK  110  A    between atoms: _257  and  _259
REMARK  111  A    between atoms: _259  and  _260
REMARK  112  A    between atoms: _259  and  _262
REMARK  113  A    between atoms: _262  and  _263
REMARK  114  A    between atoms: _266  and  _268
REMARK  115  A    between atoms: _268  and  _269
REMARK  116  A    between atoms: _271  and  _273
REMARK  117  A    between atoms: _273  and  _274
REMARK  118  A    between atoms: _273  and  _276
REMARK  119  A    between atoms: _276  and  _277
REMARK  120  A    between atoms: _283  and  _285
REMARK  121  A    between atoms: _285  and  _286
REMARK  122  A    between atoms: _285  and  _288
REMARK  123  A    between atoms: _288  and  _289
REMARK  124  A    between atoms: _294  and  _295
REMARK  125  A    between atoms: _297  and  _299
REMARK  126  A    between atoms: _299  and  _300
REMARK  127  A    between atoms: _299  and  _302
REMARK  128  A    between atoms: _305  and  _307
REMARK  129  A    between atoms: _307  and  _308
REMARK  130  A    between atoms: _311  and  _313
REMARK  131  A    between atoms: _313  and  _314
REMARK  132  A    between atoms: _313  and  _316
REMARK  133  A    between atoms: _316  and  _317
REMARK  134  A    between atoms: NI_327  and  _345
REMARK  135  A    between atoms: NI_328  and  _345
REMARK                            x       y       z     vdW  Elec       q    Type
REMARK                         _______ _______ _______ _____ _____    ______ ____
ROOT
ATOM      1  O   HOH     1       1.233  18.044  47.107  0.00  0.00    +0.000 OA
ENDROOT
TORSDOF 0
REMARK  Name = ../refined-set-2016/4lm0/4lm0_pocket.pdb
REMARK  135 active torsions:
REMARK  status: ('A' for Active; 'I' for Inactive)
REMARK    1  A    between atoms: _1  and  _3
REMARK    2  A    between atoms: _3  and  _4
REMARK    3  A    between atoms: _3  and  _6
REMARK    4  A    between atoms: _6  and  _7
REMARK    5  A    between atoms: _12  and  _13
REMARK    6  A    between atoms: _15  and  _17
REMARK    7  A    between atoms: _17  and  _18
REMARK    8  A    between atoms: _17  and  _20
REMARK    9  A    between atoms: _20  and  _21
REMARK   10  A    between atoms: _26  and  _28
REMARK   11  A    between atoms: _28  and  _29
REMARK   12  A    between atoms: _28  and  _31
REMARK   13  A    between atoms: _31  and  _32
REMARK   14  A    between atoms: _36  and  NI_327
REMARK   15  A    between atoms: _37  and  _39
REMARK   16  A    between atoms: _39  and  _40
REMARK   17  A    between atoms: _39  and  _42
REMARK   18  A    between atoms: _42  and  _43
REMARK   19  A    between atoms: _48  and  _50
REMARK   20  A    between atoms: _50  and  _51
REMARK   21  A    between atoms: _50  and  _53
REMARK   22  A    between atoms: _53  and  _54
REMARK   23  A    between atoms: _56  and  _58
REMARK   24  A    between atoms: _58  and  _59
REMARK   25  A    between atoms: _58  and  _61
REMARK   26  A    between atoms: _61  and  _62
REMARK   27  A    between atoms: _67  and  _69
REMARK   28  A    between atoms: _69  and  _70
REMARK   29  A    between atoms: _69  and  _72
REMARK   30  A    between atoms: _72  and  _73
REMARK   31  A    between atoms: _75  and  _77
REMARK   32  A    between atoms: _77  and  _78
REMARK   33  A    between atoms: _77  and  _80
REMARK   34  A    between atoms: _80  and  _81
REMARK   35  A    between atoms: _84  and  _86
REMARK   36  A    between atoms: _86  and  _87
REMARK   37  A    between atoms: _86  and  _89
REMARK   38  A    between atoms: _89  and  _90
REMARK   39  A    between atoms: _93  and  _95
REMARK   40  A    between atoms: _95  and  _96
REMARK   41  A    between atoms: _95  and  _98
REMARK   42  A    between atoms: _98  and  _99
REMARK   43  A    between atoms: _102  and  _104
REMARK   44  A    between atoms: _104  and  _105
REMARK   45  A    between atoms: _108  and  _110
REMARK   46  A    between atoms: _110  and  _111
REMARK   47  A    between atoms: _110  and  _113
REMARK   48  A    between atoms: _113  and  _114
REMARK   49  A    between atoms: _120  and  _122
REMARK   50  A    between atoms: _122  and  _123
REMARK   51  A    between atoms: _122  and  _125
REMARK   52  A    between atoms: _125  and  _126
REMARK   53  A    between atoms: _126  and  _128
REMARK   54  A    between atoms: _128  and  NI_327
REMARK   55  A    between atoms: _129  and  _131
REMARK   56  A    between atoms: _131  and  _132
REMARK   57  A    between atoms: _131  and  _134
REMARK   58  A    between atoms: _134  and  _135
REMARK   59  A    between atoms: _138  and  _140
REMARK   60  A    between atoms: _140  and  _141
REMARK   61  A    between atoms: _140  and  _143
REMARK   62  A    between atoms: _143  and  _144
REMARK   63  A    between atoms: _146  and  _148
REMARK   64  A    between atoms: _148  and  _149
REMARK   65  A    between atoms: _148  and  _151
REMARK   66  A    between atoms: _154  and  _156
REMARK   67  A    between atoms: _156  and  _157
REMARK   68  A    between atoms: _160  and  _162
REMARK   69  A    between atoms: _162  and  _163
REMARK   70  A    between atoms: _162  and  _165
REMARK   71  A    between atoms: _165  and  _166
REMARK   72  A    between atoms: _169  and  _171
REMARK   73  A    between atoms: _171  and  _172
REMARK   74  A    between atoms: _171  and  _174
REMARK   75  A    between atoms: _174  and  _175
REMARK   76  A    between atoms: _180  and  _181
REMARK   77  A    between atoms: _183  and  _185
REMARK   78  A    between atoms: _185  and  _186
REMARK   79  A    between atoms: _185  and  _188
REMARK   80  A    between atoms: _188  and  _189
REMARK   81  A    between atoms: _189  and  _190
REMARK   82  A    between atoms: _193  and  _195
REMARK   83  A    between atoms: _195  and  _196
REMARK   84  A    between atoms: _195  and  _198
REMARK   85  A    between atoms: _198  and  _199
REMARK   86  A    between atoms: _205  and  _207
REMARK   87  A    between atoms: _207  and  _208
REMARK   88  A    between atoms: _207  and  _210
REMARK   89  A    between atoms: _210  and  _211
REMARK   90  A    between atoms: _214  and  _216
REMARK   91  A    between atoms: _216  and  _217
REMARK   92  A    between atoms: _216  and  _219
REMARK   93  A    between atoms: _219  and  _220
REMARK   94  A    between atoms: _220  and  _221
REMARK   95  A    between atoms: _223  and  _225
REMARK   96  A    between atoms: _225  and  _226
REMARK   97  A    between atoms: _225  and  _228
REMARK   98  A    between atoms: _228  and  _229
REMARK   99  A    between atoms: _229  and  _230
REMARK  100  A    between atoms: _232  and  _234
REMARK  101  A    between atoms: _234  and  _235
REMARK  102  A    between atoms: _234  and  _237
REMARK  103  A    between atoms: _240  and  _242
REMARK  104  A    between atoms: _242  and  _243
REMARK  105  A    between atoms: _245  and  _247
REMARK  106  A    between atoms: _247  and  _248
REMARK  107  A    between atoms: _247  and  _250
REMARK  108  A    between atoms: _250  and  _251
REMARK  109  A    between atoms: _251  and  _252
REMARK  110  A    between atoms: _257  and  _259
REMARK  111  A    between atoms: _259  and  _260
REMARK  112  A    between atoms: _259  and  _262
REMARK  113  A    between atoms: _262  and  _263
REMARK  114  A    between atoms: _266  and  _268
REMARK  115  A    between atoms: _268  and  _269
REMARK  116  A    between atoms: _271  and  _273
REMARK  117  A    between atoms: _273  and  _274
REMARK  118  A    between atoms: _273  and  _276
REMARK  119  A    between atoms: _276  and  _277
REMARK  120  A    between atoms: _283  and  _285
REMARK  121  A    between atoms: _285  and  _286
REMARK  122  A    between atoms: _285  and  _288
REMARK  123  A    between atoms: _288  and  _289
REMARK  124  A    between atoms: _294  and  _295
REMARK  125  A    between atoms: _297  and  _299
REMARK  126  A    between atoms: _299  and  _300
REMARK  127  A    between atoms: _299  and  _302
REMARK  128  A    between atoms: _305  and  _307
REMARK  129  A    between atoms: _307  and  _308
REMARK  130  A    between atoms: _311  and  _313
REMARK  131  A    between atoms: _313  and  _314
REMARK  132  A    between atoms: _313  and  _316
REMARK  133  A    between atoms: _316  and  _317
REMARK  134  A    between atoms: NI_327  and  _345
REMARK  135  A    between atoms: NI_328  and  _345
REMARK                            x       y       z     vdW  Elec       q    Type
REMARK                         _______ _______ _______ _____ _____    ______ ____
ROOT
ATOM      1  O   HOH     1       8.728   3.598  44.036  0.00  0.00    +0.000 OA
ENDROOT
TORSDOF 0
REMARK  Name = ../refined-set-2016/4lm0/4lm0_pocket.pdb
REMARK  135 active torsions:
REMARK  status: ('A' for Active; 'I' for Inactive)
REMARK    1  A    between atoms: _1  and  _3
REMARK    2  A    between atoms: _3  and  _4
REMARK    3  A    between atoms: _3  and  _6
REMARK    4  A    between atoms: _6  and  _7
REMARK    5  A    between atoms: _12  and  _13
REMARK    6  A    between atoms: _15  and  _17
REMARK    7  A    between atoms: _17  and  _18
REMARK    8  A    between atoms: _17  and  _20
REMARK    9  A    between atoms: _20  and  _21
REMARK   10  A    between atoms: _26  and  _28
REMARK   11  A    between atoms: _28  and  _29
REMARK   12  A    between atoms: _28  and  _31
REMARK   13  A    between atoms: _31  and  _32
REMARK   14  A    between atoms: _36  and  NI_327
REMARK   15  A    between atoms: _37  and  _39
REMARK   16  A    between atoms: _39  and  _40
REMARK   17  A    between atoms: _39  and  _42
REMARK   18  A    between atoms: _42  and  _43
REMARK   19  A    between atoms: _48  and  _50
REMARK   20  A    between atoms: _50  and  _51
REMARK   21  A    between atoms: _50  and  _53
REMARK   22  A    between atoms: _53  and  _54
REMARK   23  A    between atoms: _56  and  _58
REMARK   24  A    between atoms: _58  and  _59
REMARK   25  A    between atoms: _58  and  _61
REMARK   26  A    between atoms: _61  and  _62
REMARK   27  A    between atoms: _67  and  _69
REMARK   28  A    between atoms: _69  and  _70
REMARK   29  A    between atoms: _69  and  _72
REMARK   30  A    between atoms: _72  and  _73
REMARK   31  A    between atoms: _75  and  _77
REMARK   32  A    between atoms: _77  and  _78
REMARK   33  A    between atoms: _77  and  _80
REMARK   34  A    between atoms: _80  and  _81
REMARK   35  A    between atoms: _84  and  _86
REMARK   36  A    between atoms: _86  and  _87
REMARK   37  A    between atoms: _86  and  _89
REMARK   38  A    between atoms: _89  and  _90
REMARK   39  A    between atoms: _93  and  _95
REMARK   40  A    between atoms: _95  and  _96
REMARK   41  A    between atoms: _95  and  _98
REMARK   42  A    between atoms: _98  and  _99
REMARK   43  A    between atoms: _102  and  _104
REMARK   44  A    between atoms: _104  and  _105
REMARK   45  A    between atoms: _108  and  _110
REMARK   46  A    between atoms: _110  and  _111
REMARK   47  A    between atoms: _110  and  _113
REMARK   48  A    between atoms: _113  and  _114
REMARK   49  A    between atoms: _120  and  _122
REMARK   50  A    between atoms: _122  and  _123
REMARK   51  A    between atoms: _122  and  _125
REMARK   52  A    between atoms: _125  and  _126
REMARK   53  A    between atoms: _126  and  _128
REMARK   54  A    between atoms: _128  and  NI_327
REMARK   55  A    between atoms: _129  and  _131
REMARK   56  A    between atoms: _131  and  _132
REMARK   57  A    between atoms: _131  and  _134
REMARK   58  A    between atoms: _134  and  _135
REMARK   59  A    between atoms: _138  and  _140
REMARK   60  A    between atoms: _140  and  _141
REMARK   61  A    between atoms: _140  and  _143
REMARK   62  A    between atoms: _143  and  _144
REMARK   63  A    between atoms: _146  and  _148
REMARK   64  A    between atoms: _148  and  _149
REMARK   65  A    between atoms: _148  and  _151
REMARK   66  A    between atoms: _154  and  _156
REMARK   67  A    between atoms: _156  and  _157
REMARK   68  A    between atoms: _160  and  _162
REMARK   69  A    between atoms: _162  and  _163
REMARK   70  A    between atoms: _162  and  _165
REMARK   71  A    between atoms: _165  and  _166
REMARK   72  A    between atoms: _169  and  _171
REMARK   73  A    between atoms: _171  and  _172
REMARK   74  A    between atoms: _171  and  _174
REMARK   75  A    between atoms: _174  and  _175
REMARK   76  A    between atoms: _180  and  _181
REMARK   77  A    between atoms: _183  and  _185
REMARK   78  A    between atoms: _185  and  _186
REMARK   79  A    between atoms: _185  and  _188
REMARK   80  A    between atoms: _188  and  _189
REMARK   81  A    between atoms: _189  and  _190
REMARK   82  A    between atoms: _193  and  _195
REMARK   83  A    between atoms: _195  and  _196
REMARK   84  A    between atoms: _195  and  _198
REMARK   85  A    between atoms: _198  and  _199
REMARK   86  A    between atoms: _205  and  _207
REMARK   87  A    between atoms: _207  and  _208
REMARK   88  A    between atoms: _207  and  _210
REMARK   89  A    between atoms: _210  and  _211
REMARK   90  A    between atoms: _214  and  _216
REMARK   91  A    between atoms: _216  and  _217
REMARK   92  A    between atoms: _216  and  _219
REMARK   93  A    between atoms: _219  and  _220
REMARK   94  A    between atoms: _220  and  _221
REMARK   95  A    between atoms: _223  and  _225
REMARK   96  A    between atoms: _225  and  _226
REMARK   97  A    between atoms: _225  and  _228
REMARK   98  A    between atoms: _228  and  _229
REMARK   99  A    between atoms: _229  and  _230
REMARK  100  A    between atoms: _232  and  _234
REMARK  101  A    between atoms: _234  and  _235
REMARK  102  A    between atoms: _234  and  _237
REMARK  103  A    between atoms: _240  and  _242
REMARK  104  A    between atoms: _242  and  _243
REMARK  105  A    between atoms: _245  and  _247
REMARK  106  A    between atoms: _247  and  _248
REMARK  107  A    between atoms: _247  and  _250
REMARK  108  A    between atoms: _250  and  _251
REMARK  109  A    between atoms: _251  and  _252
REMARK  110  A    between atoms: _257  and  _259
REMARK  111  A    between atoms: _259  and  _260
REMARK  112  A    between atoms: _259  and  _262
REMARK  113  A    between atoms: _262  and  _263
REMARK  114  A    between atoms: _266  and  _268
REMARK  115  A    between atoms: _268  and  _269
REMARK  116  A    between atoms: _271  and  _273
REMARK  117  A    between atoms: _273  and  _274
REMARK  118  A    between atoms: _273  and  _276
REMARK  119  A    between atoms: _276  and  _277
REMARK  120  A    between atoms: _283  and  _285
REMARK  121  A    between atoms: _285  and  _286
REMARK  122  A    between atoms: _285  and  _288
REMARK  123  A    between atoms: _288  and  _289
REMARK  124  A    between atoms: _294  and  _295
REMARK  125  A    between atoms: _297  and  _299
REMARK  126  A    between atoms: _299  and  _300
REMARK  127  A    between atoms: _299  and  _302
REMARK  128  A    between atoms: _305  and  _307
REMARK  129  A    between atoms: _307  and  _308
REMARK  130  A    between atoms: _311  and  _313
REMARK  131  A    between atoms: _313  and  _314
REMARK  132  A    between atoms: _313  and  _316
REMARK  133  A    between atoms: _316  and  _317
REMARK  134  A    between atoms: NI_327  and  _345
REMARK  135  A    between atoms: NI_328  and  _345
REMARK                            x       y       z     vdW  Elec       q    Type
REMARK                         _______ _______ _______ _____ _____    ______ ____
ROOT
ATOM      1  O   HOH     1       6.767   4.815  41.923  0.00  0.00    +0.000 OA
ENDROOT
TORSDOF 0
REMARK  Name = ../refined-set-2016/4lm0/4lm0_pocket.pdb
REMARK  135 active torsions:
REMARK  status: ('A' for Active; 'I' for Inactive)
REMARK    1  A    between atoms: _1  and  _3
REMARK    2  A    between atoms: _3  and  _4
REMARK    3  A    between atoms: _3  and  _6
REMARK    4  A    between atoms: _6  and  _7
REMARK    5  A    between atoms: _12  and  _13
REMARK    6  A    between atoms: _15  and  _17
REMARK    7  A    between atoms: _17  and  _18
REMARK    8  A    between atoms: _17  and  _20
REMARK    9  A    between atoms: _20  and  _21
REMARK   10  A    between atoms: _26  and  _28
REMARK   11  A    between atoms: _28  and  _29
REMARK   12  A    between atoms: _28  and  _31
REMARK   13  A    between atoms: _31  and  _32
REMARK   14  A    between atoms: _36  and  NI_327
REMARK   15  A    between atoms: _37  and  _39
REMARK   16  A    between atoms: _39  and  _40
REMARK   17  A    between atoms: _39  and  _42
REMARK   18  A    between atoms: _42  and  _43
REMARK   19  A    between atoms: _48  and  _50
REMARK   20  A    between atoms: _50  and  _51
REMARK   21  A    between atoms: _50  and  _53
REMARK   22  A    between atoms: _53  and  _54
REMARK   23  A    between atoms: _56  and  _58
REMARK   24  A    between atoms: _58  and  _59
REMARK   25  A    between atoms: _58  and  _61
REMARK   26  A    between atoms: _61  and  _62
REMARK   27  A    between atoms: _67  and  _69
REMARK   28  A    between atoms: _69  and  _70
REMARK   29  A    between atoms: _69  and  _72
REMARK   30  A    between atoms: _72  and  _73
REMARK   31  A    between atoms: _75  and  _77
REMARK   32  A    between atoms: _77  and  _78
REMARK   33  A    between atoms: _77  and  _80
REMARK   34  A    between atoms: _80  and  _81
REMARK   35  A    between atoms: _84  and  _86
REMARK   36  A    between atoms: _86  and  _87
REMARK   37  A    between atoms: _86  and  _89
REMARK   38  A    between atoms: _89  and  _90
REMARK   39  A    between atoms: _93  and  _95
REMARK   40  A    between atoms: _95  and  _96
REMARK   41  A    between atoms: _95  and  _98
REMARK   42  A    between atoms: _98  and  _99
REMARK   43  A    between atoms: _102  and  _104
REMARK   44  A    between atoms: _104  and  _105
REMARK   45  A    between atoms: _108  and  _110
REMARK   46  A    between atoms: _110  and  _111
REMARK   47  A    between atoms: _110  and  _113
REMARK   48  A    between atoms: _113  and  _114
REMARK   49  A    between atoms: _120  and  _122
REMARK   50  A    between atoms: _122  and  _123
REMARK   51  A    between atoms: _122  and  _125
REMARK   52  A    between atoms: _125  and  _126
REMARK   53  A    between atoms: _126  and  _128
REMARK   54  A    between atoms: _128  and  NI_327
REMARK   55  A    between atoms: _129  and  _131
REMARK   56  A    between atoms: _131  and  _132
REMARK   57  A    between atoms: _131  and  _134
REMARK   58  A    between atoms: _134  and  _135
REMARK   59  A    between atoms: _138  and  _140
REMARK   60  A    between atoms: _140  and  _141
REMARK   61  A    between atoms: _140  and  _143
REMARK   62  A    between atoms: _143  and  _144
REMARK   63  A    between atoms: _146  and  _148
REMARK   64  A    between atoms: _148  and  _149
REMARK   65  A    between atoms: _148  and  _151
REMARK   66  A    between atoms: _154  and  _156
REMARK   67  A    between atoms: _156  and  _157
REMARK   68  A    between atoms: _160  and  _162
REMARK   69  A    between atoms: _162  and  _163
REMARK   70  A    between atoms: _162  and  _165
REMARK   71  A    between atoms: _165  and  _166
REMARK   72  A    between atoms: _169  and  _171
REMARK   73  A    between atoms: _171  and  _172
REMARK   74  A    between atoms: _171  and  _174
REMARK   75  A    between atoms: _174  and  _175
REMARK   76  A    between atoms: _180  and  _181
REMARK   77  A    between atoms: _183  and  _185
REMARK   78  A    between atoms: _185  and  _186
REMARK   79  A    between atoms: _185  and  _188
REMARK   80  A    between atoms: _188  and  _189
REMARK   81  A    between atoms: _189  and  _190
REMARK   82  A    between atoms: _193  and  _195
REMARK   83  A    between atoms: _195  and  _196
REMARK   84  A    between atoms: _195  and  _198
REMARK   85  A    between atoms: _198  and  _199
REMARK   86  A    between atoms: _205  and  _207
REMARK   87  A    between atoms: _207  and  _208
REMARK   88  A    between atoms: _207  and  _210
REMARK   89  A    between atoms: _210  and  _211
REMARK   90  A    between atoms: _214  and  _216
REMARK   91  A    between atoms: _216  and  _217
REMARK   92  A    between atoms: _216  and  _219
REMARK   93  A    between atoms: _219  and  _220
REMARK   94  A    between atoms: _220  and  _221
REMARK   95  A    between atoms: _223  and  _225
REMARK   96  A    between atoms: _225  and  _226
REMARK   97  A    between atoms: _225  and  _228
REMARK   98  A    between atoms: _228  and  _229
REMARK   99  A    between atoms: _229  and  _230
REMARK  100  A    between atoms: _232  and  _234
REMARK  101  A    between atoms: _234  and  _235
REMARK  102  A    between atoms: _234  and  _237
REMARK  103  A    between atoms: _240  and  _242
REMARK  104  A    between atoms: _242  and  _243
REMARK  105  A    between atoms: _245  and  _247
REMARK  106  A    between atoms: _247  and  _248
REMARK  107  A    between atoms: _247  and  _250
REMARK  108  A    between atoms: _250  and  _251
REMARK  109  A    between atoms: _251  and  _252
REMARK  110  A    between atoms: _257  and  _259
REMARK  111  A    between atoms: _259  and  _260
REMARK  112  A    between atoms: _259  and  _262
REMARK  113  A    between atoms: _262  and  _263
REMARK  114  A    between atoms: _266  and  _268
REMARK  115  A    between atoms: _268  and  _269
REMARK  116  A    between atoms: _271  and  _273
REMARK  117  A    between atoms: _273  and  _274
REMARK  118  A    between atoms: _273  and  _276
REMARK  119  A    between atoms: _276  and  _277
REMARK  120  A    between atoms: _283  and  _285
REMARK  121  A    between atoms: _285  and  _286
REMARK  122  A    between atoms: _285  and  _288
REMARK  123  A    between atoms: _288  and  _289
REMARK  124  A    between atoms: _294  and  _295
REMARK  125  A    between atoms: _297  and  _299
REMARK  126  A    between atoms: _299  and  _300
REMARK  127  A    between atoms: _299  and  _302
REMARK  128  A    between atoms: _305  and  _307
REMARK  129  A    between atoms: _307  and  _308
REMARK  130  A    between atoms: _311  and  _313
REMARK  131  A    between atoms: _313  and  _314
REMARK  132  A    between atoms: _313  and  _316
REMARK  133  A    between atoms: _316  and  _317
REMARK  134  A    between atoms: NI_327  and  _345
REMARK  135  A    between atoms: NI_328  and  _345
REMARK                            x       y       z     vdW  Elec       q    Type
REMARK                         _______ _______ _______ _____ _____    ______ ____
ROOT
ATOM      1  O   HOH     1      13.293  12.511  38.798  0.00  0.00    +0.000 OA
ENDROOT
TORSDOF 0
REMARK  Name = ../refined-set-2016/4lm0/4lm0_pocket.pdb
REMARK  135 active torsions:
REMARK  status: ('A' for Active; 'I' for Inactive)
REMARK    1  A    between atoms: _1  and  _3
REMARK    2  A    between atoms: _3  and  _4
REMARK    3  A    between atoms: _3  and  _6
REMARK    4  A    between atoms: _6  and  _7
REMARK    5  A    between atoms: _12  and  _13
REMARK    6  A    between atoms: _15  and  _17
REMARK    7  A    between atoms: _17  and  _18
REMARK    8  A    between atoms: _17  and  _20
REMARK    9  A    between atoms: _20  and  _21
REMARK   10  A    between atoms: _26  and  _28
REMARK   11  A    between atoms: _28  and  _29
REMARK   12  A    between atoms: _28  and  _31
REMARK   13  A    between atoms: _31  and  _32
REMARK   14  A    between atoms: _36  and  NI_327
REMARK   15  A    between atoms: _37  and  _39
REMARK   16  A    between atoms: _39  and  _40
REMARK   17  A    between atoms: _39  and  _42
REMARK   18  A    between atoms: _42  and  _43
REMARK   19  A    between atoms: _48  and  _50
REMARK   20  A    between atoms: _50  and  _51
REMARK   21  A    between atoms: _50  and  _53
REMARK   22  A    between atoms: _53  and  _54
REMARK   23  A    between atoms: _56  and  _58
REMARK   24  A    between atoms: _58  and  _59
REMARK   25  A    between atoms: _58  and  _61
REMARK   26  A    between atoms: _61  and  _62
REMARK   27  A    between atoms: _67  and  _69
REMARK   28  A    between atoms: _69  and  _70
REMARK   29  A    between atoms: _69  and  _72
REMARK   30  A    between atoms: _72  and  _73
REMARK   31  A    between atoms: _75  and  _77
REMARK   32  A    between atoms: _77  and  _78
REMARK   33  A    between atoms: _77  and  _80
REMARK   34  A    between atoms: _80  and  _81
REMARK   35  A    between atoms: _84  and  _86
REMARK   36  A    between atoms: _86  and  _87
REMARK   37  A    between atoms: _86  and  _89
REMARK   38  A    between atoms: _89  and  _90
REMARK   39  A    between atoms: _93  and  _95
REMARK   40  A    between atoms: _95  and  _96
REMARK   41  A    between atoms: _95  and  _98
REMARK   42  A    between atoms: _98  and  _99
REMARK   43  A    between atoms: _102  and  _104
REMARK   44  A    between atoms: _104  and  _105
REMARK   45  A    between atoms: _108  and  _110
REMARK   46  A    between atoms: _110  and  _111
REMARK   47  A    between atoms: _110  and  _113
REMARK   48  A    between atoms: _113  and  _114
REMARK   49  A    between atoms: _120  and  _122
REMARK   50  A    between atoms: _122  and  _123
REMARK   51  A    between atoms: _122  and  _125
REMARK   52  A    between atoms: _125  and  _126
REMARK   53  A    between atoms: _126  and  _128
REMARK   54  A    between atoms: _128  and  NI_327
REMARK   55  A    between atoms: _129  and  _131
REMARK   56  A    between atoms: _131  and  _132
REMARK   57  A    between atoms: _131  and  _134
REMARK   58  A    between atoms: _134  and  _135
REMARK   59  A    between atoms: _138  and  _140
REMARK   60  A    between atoms: _140  and  _141
REMARK   61  A    between atoms: _140  and  _143
REMARK   62  A    between atoms: _143  and  _144
REMARK   63  A    between atoms: _146  and  _148
REMARK   64  A    between atoms: _148  and  _149
REMARK   65  A    between atoms: _148  and  _151
REMARK   66  A    between atoms: _154  and  _156
REMARK   67  A    between atoms: _156  and  _157
REMARK   68  A    between atoms: _160  and  _162
REMARK   69  A    between atoms: _162  and  _163
REMARK   70  A    between atoms: _162  and  _165
REMARK   71  A    between atoms: _165  and  _166
REMARK   72  A    between atoms: _169  and  _171
REMARK   73  A    between atoms: _171  and  _172
REMARK   74  A    between atoms: _171  and  _174
REMARK   75  A    between atoms: _174  and  _175
REMARK   76  A    between atoms: _180  and  _181
REMARK   77  A    between atoms: _183  and  _185
REMARK   78  A    between atoms: _185  and  _186
REMARK   79  A    between atoms: _185  and  _188
REMARK   80  A    between atoms: _188  and  _189
REMARK   81  A    between atoms: _189  and  _190
REMARK   82  A    between atoms: _193  and  _195
REMARK   83  A    between atoms: _195  and  _196
REMARK   84  A    between atoms: _195  and  _198
REMARK   85  A    between atoms: _198  and  _199
REMARK   86  A    between atoms: _205  and  _207
REMARK   87  A    between atoms: _207  and  _208
REMARK   88  A    between atoms: _207  and  _210
REMARK   89  A    between atoms: _210  and  _211
REMARK   90  A    between atoms: _214  and  _216
REMARK   91  A    between atoms: _216  and  _217
REMARK   92  A    between atoms: _216  and  _219
REMARK   93  A    between atoms: _219  and  _220
REMARK   94  A    between atoms: _220  and  _221
REMARK   95  A    between atoms: _223  and  _225
REMARK   96  A    between atoms: _225  and  _226
REMARK   97  A    between atoms: _225  and  _228
REMARK   98  A    between atoms: _228  and  _229
REMARK   99  A    between atoms: _229  and  _230
REMARK  100  A    between atoms: _232  and  _234
REMARK  101  A    between atoms: _234  and  _235
REMARK  102  A    between atoms: _234  and  _237
REMARK  103  A    between atoms: _240  and  _242
REMARK  104  A    between atoms: _242  and  _243
REMARK  105  A    between atoms: _245  and  _247
REMARK  106  A    between atoms: _247  and  _248
REMARK  107  A    between atoms: _247  and  _250
REMARK  108  A    between atoms: _250  and  _251
REMARK  109  A    between atoms: _251  and  _252
REMARK  110  A    between atoms: _257  and  _259
REMARK  111  A    between atoms: _259  and  _260
REMARK  112  A    between atoms: _259  and  _262
REMARK  113  A    between atoms: _262  and  _263
REMARK  114  A    between atoms: _266  and  _268
REMARK  115  A    between atoms: _268  and  _269
REMARK  116  A    between atoms: _271  and  _273
REMARK  117  A    between atoms: _273  and  _274
REMARK  118  A    between atoms: _273  and  _276
REMARK  119  A    between atoms: _276  and  _277
REMARK  120  A    between atoms: _283  and  _285
REMARK  121  A    between atoms: _285  and  _286
REMARK  122  A    between atoms: _285  and  _288
REMARK  123  A    between atoms: _288  and  _289
REMARK  124  A    between atoms: _294  and  _295
REMARK  125  A    between atoms: _297  and  _299
REMARK  126  A    between atoms: _299  and  _300
REMARK  127  A    between atoms: _299  and  _302
REMARK  128  A    between atoms: _305  and  _307
REMARK  129  A    between atoms: _307  and  _308
REMARK  130  A    between atoms: _311  and  _313
REMARK  131  A    between atoms: _313  and  _314
REMARK  132  A    between atoms: _313  and  _316
REMARK  133  A    between atoms: _316  and  _317
REMARK  134  A    between atoms: NI_327  and  _345
REMARK  135  A    between atoms: NI_328  and  _345
REMARK                            x       y       z     vdW  Elec       q    Type
REMARK                         _______ _______ _______ _____ _____    ______ ____
ROOT
ATOM      1  O   HOH     1       4.489   4.191  46.100  0.00  0.00    +0.000 OA
ENDROOT
TORSDOF 0
REMARK  Name = ../refined-set-2016/4lm0/4lm0_pocket.pdb
REMARK  135 active torsions:
REMARK  status: ('A' for Active; 'I' for Inactive)
REMARK    1  A    between atoms: _1  and  _3
REMARK    2  A    between atoms: _3  and  _4
REMARK    3  A    between atoms: _3  and  _6
REMARK    4  A    between atoms: _6  and  _7
REMARK    5  A    between atoms: _12  and  _13
REMARK    6  A    between atoms: _15  and  _17
REMARK    7  A    between atoms: _17  and  _18
REMARK    8  A    between atoms: _17  and  _20
REMARK    9  A    between atoms: _20  and  _21
REMARK   10  A    between atoms: _26  and  _28
REMARK   11  A    between atoms: _28  and  _29
REMARK   12  A    between atoms: _28  and  _31
REMARK   13  A    between atoms: _31  and  _32
REMARK   14  A    between atoms: _36  and  NI_327
REMARK   15  A    between atoms: _37  and  _39
REMARK   16  A    between atoms: _39  and  _40
REMARK   17  A    between atoms: _39  and  _42
REMARK   18  A    between atoms: _42  and  _43
REMARK   19  A    between atoms: _48  and  _50
REMARK   20  A    between atoms: _50  and  _51
REMARK   21  A    between atoms: _50  and  _53
REMARK   22  A    between atoms: _53  and  _54
REMARK   23  A    between atoms: _56  and  _58
REMARK   24  A    between atoms: _58  and  _59
REMARK   25  A    between atoms: _58  and  _61
REMARK   26  A    between atoms: _61  and  _62
REMARK   27  A    between atoms: _67  and  _69
REMARK   28  A    between atoms: _69  and  _70
REMARK   29  A    between atoms: _69  and  _72
REMARK   30  A    between atoms: _72  and  _73
REMARK   31  A    between atoms: _75  and  _77
REMARK   32  A    between atoms: _77  and  _78
REMARK   33  A    between atoms: _77  and  _80
REMARK   34  A    between atoms: _80  and  _81
REMARK   35  A    between atoms: _84  and  _86
REMARK   36  A    between atoms: _86  and  _87
REMARK   37  A    between atoms: _86  and  _89
REMARK   38  A    between atoms: _89  and  _90
REMARK   39  A    between atoms: _93  and  _95
REMARK   40  A    between atoms: _95  and  _96
REMARK   41  A    between atoms: _95  and  _98
REMARK   42  A    between atoms: _98  and  _99
REMARK   43  A    between atoms: _102  and  _104
REMARK   44  A    between atoms: _104  and  _105
REMARK   45  A    between atoms: _108  and  _110
REMARK   46  A    between atoms: _110  and  _111
REMARK   47  A    between atoms: _110  and  _113
REMARK   48  A    between atoms: _113  and  _114
REMARK   49  A    between atoms: _120  and  _122
REMARK   50  A    between atoms: _122  and  _123
REMARK   51  A    between atoms: _122  and  _125
REMARK   52  A    between atoms: _125  and  _126
REMARK   53  A    between atoms: _126  and  _128
REMARK   54  A    between atoms: _128  and  NI_327
REMARK   55  A    between atoms: _129  and  _131
REMARK   56  A    between atoms: _131  and  _132
REMARK   57  A    between atoms: _131  and  _134
REMARK   58  A    between atoms: _134  and  _135
REMARK   59  A    between atoms: _138  and  _140
REMARK   60  A    between atoms: _140  and  _141
REMARK   61  A    between atoms: _140  and  _143
REMARK   62  A    between atoms: _143  and  _144
REMARK   63  A    between atoms: _146  and  _148
REMARK   64  A    between atoms: _148  and  _149
REMARK   65  A    between atoms: _148  and  _151
REMARK   66  A    between atoms: _154  and  _156
REMARK   67  A    between atoms: _156  and  _157
REMARK   68  A    between atoms: _160  and  _162
REMARK   69  A    between atoms: _162  and  _163
REMARK   70  A    between atoms: _162  and  _165
REMARK   71  A    between atoms: _165  and  _166
REMARK   72  A    between atoms: _169  and  _171
REMARK   73  A    between atoms: _171  and  _172
REMARK   74  A    between atoms: _171  and  _174
REMARK   75  A    between atoms: _174  and  _175
REMARK   76  A    between atoms: _180  and  _181
REMARK   77  A    between atoms: _183  and  _185
REMARK   78  A    between atoms: _185  and  _186
REMARK   79  A    between atoms: _185  and  _188
REMARK   80  A    between atoms: _188  and  _189
REMARK   81  A    between atoms: _189  and  _190
REMARK   82  A    between atoms: _193  and  _195
REMARK   83  A    between atoms: _195  and  _196
REMARK   84  A    between atoms: _195  and  _198
REMARK   85  A    between atoms: _198  and  _199
REMARK   86  A    between atoms: _205  and  _207
REMARK   87  A    between atoms: _207  and  _208
REMARK   88  A    between atoms: _207  and  _210
REMARK   89  A    between atoms: _210  and  _211
REMARK   90  A    between atoms: _214  and  _216
REMARK   91  A    between atoms: _216  and  _217
REMARK   92  A    between atoms: _216  and  _219
REMARK   93  A    between atoms: _219  and  _220
REMARK   94  A    between atoms: _220  and  _221
REMARK   95  A    between atoms: _223  and  _225
REMARK   96  A    between atoms: _225  and  _226
REMARK   97  A    between atoms: _225  and  _228
REMARK   98  A    between atoms: _228  and  _229
REMARK   99  A    between atoms: _229  and  _230
REMARK  100  A    between atoms: _232  and  _234
REMARK  101  A    between atoms: _234  and  _235
REMARK  102  A    between atoms: _234  and  _237
REMARK  103  A    between atoms: _240  and  _242
REMARK  104  A    between atoms: _242  and  _243
REMARK  105  A    between atoms: _245  and  _247
REMARK  106  A    between atoms: _247  and  _248
REMARK  107  A    between atoms: _247  and  _250
REMARK  108  A    between atoms: _250  and  _251
REMARK  109  A    between atoms: _251  and  _252
REMARK  110  A    between atoms: _257  and  _259
REMARK  111  A    between atoms: _259  and  _260
REMARK  112  A    between atoms: _259  and  _262
REMARK  113  A    between atoms: _262  and  _263
REMARK  114  A    between atoms: _266  and  _268
REMARK  115  A    between atoms: _268  and  _269
REMARK  116  A    between atoms: _271  and  _273
REMARK  117  A    between atoms: _273  and  _274
REMARK  118  A    between atoms: _273  and  _276
REMARK  119  A    between atoms: _276  and  _277
REMARK  120  A    between atoms: _283  and  _285
REMARK  121  A    between atoms: _285  and  _286
REMARK  122  A    between atoms: _285  and  _288
REMARK  123  A    between atoms: _288  and  _289
REMARK  124  A    between atoms: _294  and  _295
REMARK  125  A    between atoms: _297  and  _299
REMARK  126  A    between atoms: _299  and  _300
REMARK  127  A    between atoms: _299  and  _302
REMARK  128  A    between atoms: _305  and  _307
REMARK  129  A    between atoms: _307  and  _308
REMARK  130  A    between atoms: _311  and  _313
REMARK  131  A    between atoms: _313  and  _314
REMARK  132  A    between atoms: _313  and  _316
REMARK  133  A    between atoms: _316  and  _317
REMARK  134  A    between atoms: NI_327  and  _345
REMARK  135  A    between atoms: NI_328  and  _345
REMARK                            x       y       z     vdW  Elec       q    Type
REMARK                         _______ _______ _______ _____ _____    ______ ____
ROOT
ATOM      1  O   HOH     1      10.021   5.569  39.234  0.00  0.00    +0.000 OA
ENDROOT
TORSDOF 0
REMARK  Name = ../refined-set-2016/4lm0/4lm0_pocket.pdb
REMARK  135 active torsions:
REMARK  status: ('A' for Active; 'I' for Inactive)
REMARK    1  A    between atoms: _1  and  _3
REMARK    2  A    between atoms: _3  and  _4
REMARK    3  A    between atoms: _3  and  _6
REMARK    4  A    between atoms: _6  and  _7
REMARK    5  A    between atoms: _12  and  _13
REMARK    6  A    between atoms: _15  and  _17
REMARK    7  A    between atoms: _17  and  _18
REMARK    8  A    between atoms: _17  and  _20
REMARK    9  A    between atoms: _20  and  _21
REMARK   10  A    between atoms: _26  and  _28
REMARK   11  A    between atoms: _28  and  _29
REMARK   12  A    between atoms: _28  and  _31
REMARK   13  A    between atoms: _31  and  _32
REMARK   14  A    between atoms: _36  and  NI_327
REMARK   15  A    between atoms: _37  and  _39
REMARK   16  A    between atoms: _39  and  _40
REMARK   17  A    between atoms: _39  and  _42
REMARK   18  A    between atoms: _42  and  _43
REMARK   19  A    between atoms: _48  and  _50
REMARK   20  A    between atoms: _50  and  _51
REMARK   21  A    between atoms: _50  and  _53
REMARK   22  A    between atoms: _53  and  _54
REMARK   23  A    between atoms: _56  and  _58
REMARK   24  A    between atoms: _58  and  _59
REMARK   25  A    between atoms: _58  and  _61
REMARK   26  A    between atoms: _61  and  _62
REMARK   27  A    between atoms: _67  and  _69
REMARK   28  A    between atoms: _69  and  _70
REMARK   29  A    between atoms: _69  and  _72
REMARK   30  A    between atoms: _72  and  _73
REMARK   31  A    between atoms: _75  and  _77
REMARK   32  A    between atoms: _77  and  _78
REMARK   33  A    between atoms: _77  and  _80
REMARK   34  A    between atoms: _80  and  _81
REMARK   35  A    between atoms: _84  and  _86
REMARK   36  A    between atoms: _86  and  _87
REMARK   37  A    between atoms: _86  and  _89
REMARK   38  A    between atoms: _89  and  _90
REMARK   39  A    between atoms: _93  and  _95
REMARK   40  A    between atoms: _95  and  _96
REMARK   41  A    between atoms: _95  and  _98
REMARK   42  A    between atoms: _98  and  _99
REMARK   43  A    between atoms: _102  and  _104
REMARK   44  A    between atoms: _104  and  _105
REMARK   45  A    between atoms: _108  and  _110
REMARK   46  A    between atoms: _110  and  _111
REMARK   47  A    between atoms: _110  and  _113
REMARK   48  A    between atoms: _113  and  _114
REMARK   49  A    between atoms: _120  and  _122
REMARK   50  A    between atoms: _122  and  _123
REMARK   51  A    between atoms: _122  and  _125
REMARK   52  A    between atoms: _125  and  _126
REMARK   53  A    between atoms: _126  and  _128
REMARK   54  A    between atoms: _128  and  NI_327
REMARK   55  A    between atoms: _129  and  _131
REMARK   56  A    between atoms: _131  and  _132
REMARK   57  A    between atoms: _131  and  _134
REMARK   58  A    between atoms: _134  and  _135
REMARK   59  A    between atoms: _138  and  _140
REMARK   60  A    between atoms: _140  and  _141
REMARK   61  A    between atoms: _140  and  _143
REMARK   62  A    between atoms: _143  and  _144
REMARK   63  A    between atoms: _146  and  _148
REMARK   64  A    between atoms: _148  and  _149
REMARK   65  A    between atoms: _148  and  _151
REMARK   66  A    between atoms: _154  and  _156
REMARK   67  A    between atoms: _156  and  _157
REMARK   68  A    between atoms: _160  and  _162
REMARK   69  A    between atoms: _162  and  _163
REMARK   70  A    between atoms: _162  and  _165
REMARK   71  A    between atoms: _165  and  _166
REMARK   72  A    between atoms: _169  and  _171
REMARK   73  A    between atoms: _171  and  _172
REMARK   74  A    between atoms: _171  and  _174
REMARK   75  A    between atoms: _174  and  _175
REMARK   76  A    between atoms: _180  and  _181
REMARK   77  A    between atoms: _183  and  _185
REMARK   78  A    between atoms: _185  and  _186
REMARK   79  A    between atoms: _185  and  _188
REMARK   80  A    between atoms: _188  and  _189
REMARK   81  A    between atoms: _189  and  _190
REMARK   82  A    between atoms: _193  and  _195
REMARK   83  A    between atoms: _195  and  _196
REMARK   84  A    between atoms: _195  and  _198
REMARK   85  A    between atoms: _198  and  _199
REMARK   86  A    between atoms: _205  and  _207
REMARK   87  A    between atoms: _207  and  _208
REMARK   88  A    between atoms: _207  and  _210
REMARK   89  A    between atoms: _210  and  _211
REMARK   90  A    between atoms: _214  and  _216
REMARK   91  A    between atoms: _216  and  _217
REMARK   92  A    between atoms: _216  and  _219
REMARK   93  A    between atoms: _219  and  _220
REMARK   94  A    between atoms: _220  and  _221
REMARK   95  A    between atoms: _223  and  _225
REMARK   96  A    between atoms: _225  and  _226
REMARK   97  A    between atoms: _225  and  _228
REMARK   98  A    between atoms: _228  and  _229
REMARK   99  A    between atoms: _229  and  _230
REMARK  100  A    between atoms: _232  and  _234
REMARK  101  A    between atoms: _234  and  _235
REMARK  102  A    between atoms: _234  and  _237
REMARK  103  A    between atoms: _240  and  _242
REMARK  104  A    between atoms: _242  and  _243
REMARK  105  A    between atoms: _245  and  _247
REMARK  106  A    between atoms: _247  and  _248
REMARK  107  A    between atoms: _247  and  _250
REMARK  108  A    between atoms: _250  and  _251
REMARK  109  A    between atoms: _251  and  _252
REMARK  110  A    between atoms: _257  and  _259
REMARK  111  A    between atoms: _259  and  _260
REMARK  112  A    between atoms: _259  and  _262
REMARK  113  A    between atoms: _262  and  _263
REMARK  114  A    between atoms: _266  and  _268
REMARK  115  A    between atoms: _268  and  _269
REMARK  116  A    between atoms: _271  and  _273
REMARK  117  A    between atoms: _273  and  _274
REMARK  118  A    between atoms: _273  and  _276
REMARK  119  A    between atoms: _276  and  _277
REMARK  120  A    between atoms: _283  and  _285
REMARK  121  A    between atoms: _285  and  _286
REMARK  122  A    between atoms: _285  and  _288
REMARK  123  A    between atoms: _288  and  _289
REMARK  124  A    between atoms: _294  and  _295
REMARK  125  A    between atoms: _297  and  _299
REMARK  126  A    between atoms: _299  and  _300
REMARK  127  A    between atoms: _299  and  _302
REMARK  128  A    between atoms: _305  and  _307
REMARK  129  A    between atoms: _307  and  _308
REMARK  130  A    between atoms: _311  and  _313
REMARK  131  A    between atoms: _313  and  _314
REMARK  132  A    between atoms: _313  and  _316
REMARK  133  A    between atoms: _316  and  _317
REMARK  134  A    between atoms: NI_327  and  _345
REMARK  135  A    between atoms: NI_328  and  _345
REMARK                            x       y       z     vdW  Elec       q    Type
REMARK                         _______ _______ _______ _____ _____    ______ ____
ROOT
ATOM      1  O   HOH     1      11.273   6.781  41.714  0.00  0.00    +0.000 OA
ENDROOT
TORSDOF 0
REMARK  Name = ../refined-set-2016/4lm0/4lm0_pocket.pdb
REMARK  135 active torsions:
REMARK  status: ('A' for Active; 'I' for Inactive)
REMARK    1  A    between atoms: _1  and  _3
REMARK    2  A    between atoms: _3  and  _4
REMARK    3  A    between atoms: _3  and  _6
REMARK    4  A    between atoms: _6  and  _7
REMARK    5  A    between atoms: _12  and  _13
REMARK    6  A    between atoms: _15  and  _17
REMARK    7  A    between atoms: _17  and  _18
REMARK    8  A    between atoms: _17  and  _20
REMARK    9  A    between atoms: _20  and  _21
REMARK   10  A    between atoms: _26  and  _28
REMARK   11  A    between atoms: _28  and  _29
REMARK   12  A    between atoms: _28  and  _31
REMARK   13  A    between atoms: _31  and  _32
REMARK   14  A    between atoms: _36  and  NI_327
REMARK   15  A    between atoms: _37  and  _39
REMARK   16  A    between atoms: _39  and  _40
REMARK   17  A    between atoms: _39  and  _42
REMARK   18  A    between atoms: _42  and  _43
REMARK   19  A    between atoms: _48  and  _50
REMARK   20  A    between atoms: _50  and  _51
REMARK   21  A    between atoms: _50  and  _53
REMARK   22  A    between atoms: _53  and  _54
REMARK   23  A    between atoms: _56  and  _58
REMARK   24  A    between atoms: _58  and  _59
REMARK   25  A    between atoms: _58  and  _61
REMARK   26  A    between atoms: _61  and  _62
REMARK   27  A    between atoms: _67  and  _69
REMARK   28  A    between atoms: _69  and  _70
REMARK   29  A    between atoms: _69  and  _72
REMARK   30  A    between atoms: _72  and  _73
REMARK   31  A    between atoms: _75  and  _77
REMARK   32  A    between atoms: _77  and  _78
REMARK   33  A    between atoms: _77  and  _80
REMARK   34  A    between atoms: _80  and  _81
REMARK   35  A    between atoms: _84  and  _86
REMARK   36  A    between atoms: _86  and  _87
REMARK   37  A    between atoms: _86  and  _89
REMARK   38  A    between atoms: _89  and  _90
REMARK   39  A    between atoms: _93  and  _95
REMARK   40  A    between atoms: _95  and  _96
REMARK   41  A    between atoms: _95  and  _98
REMARK   42  A    between atoms: _98  and  _99
REMARK   43  A    between atoms: _102  and  _104
REMARK   44  A    between atoms: _104  and  _105
REMARK   45  A    between atoms: _108  and  _110
REMARK   46  A    between atoms: _110  and  _111
REMARK   47  A    between atoms: _110  and  _113
REMARK   48  A    between atoms: _113  and  _114
REMARK   49  A    between atoms: _120  and  _122
REMARK   50  A    between atoms: _122  and  _123
REMARK   51  A    between atoms: _122  and  _125
REMARK   52  A    between atoms: _125  and  _126
REMARK   53  A    between atoms: _126  and  _128
REMARK   54  A    between atoms: _128  and  NI_327
REMARK   55  A    between atoms: _129  and  _131
REMARK   56  A    between atoms: _131  and  _132
REMARK   57  A    between atoms: _131  and  _134
REMARK   58  A    between atoms: _134  and  _135
REMARK   59  A    between atoms: _138  and  _140
REMARK   60  A    between atoms: _140  and  _141
REMARK   61  A    between atoms: _140  and  _143
REMARK   62  A    between atoms: _143  and  _144
REMARK   63  A    between atoms: _146  and  _148
REMARK   64  A    between atoms: _148  and  _149
REMARK   65  A    between atoms: _148  and  _151
REMARK   66  A    between atoms: _154  and  _156
REMARK   67  A    between atoms: _156  and  _157
REMARK   68  A    between atoms: _160  and  _162
REMARK   69  A    between atoms: _162  and  _163
REMARK   70  A    between atoms: _162  and  _165
REMARK   71  A    between atoms: _165  and  _166
REMARK   72  A    between atoms: _169  and  _171
REMARK   73  A    between atoms: _171  and  _172
REMARK   74  A    between atoms: _171  and  _174
REMARK   75  A    between atoms: _174  and  _175
REMARK   76  A    between atoms: _180  and  _181
REMARK   77  A    between atoms: _183  and  _185
REMARK   78  A    between atoms: _185  and  _186
REMARK   79  A    between atoms: _185  and  _188
REMARK   80  A    between atoms: _188  and  _189
REMARK   81  A    between atoms: _189  and  _190
REMARK   82  A    between atoms: _193  and  _195
REMARK   83  A    between atoms: _195  and  _196
REMARK   84  A    between atoms: _195  and  _198
REMARK   85  A    between atoms: _198  and  _199
REMARK   86  A    between atoms: _205  and  _207
REMARK   87  A    between atoms: _207  and  _208
REMARK   88  A    between atoms: _207  and  _210
REMARK   89  A    between atoms: _210  and  _211
REMARK   90  A    between atoms: _214  and  _216
REMARK   91  A    between atoms: _216  and  _217
REMARK   92  A    between atoms: _216  and  _219
REMARK   93  A    between atoms: _219  and  _220
REMARK   94  A    between atoms: _220  and  _221
REMARK   95  A    between atoms: _223  and  _225
REMARK   96  A    between atoms: _225  and  _226
REMARK   97  A    between atoms: _225  and  _228
REMARK   98  A    between atoms: _228  and  _229
REMARK   99  A    between atoms: _229  and  _230
REMARK  100  A    between atoms: _232  and  _234
REMARK  101  A    between atoms: _234  and  _235
REMARK  102  A    between atoms: _234  and  _237
REMARK  103  A    between atoms: _240  and  _242
REMARK  104  A    between atoms: _242  and  _243
REMARK  105  A    between atoms: _245  and  _247
REMARK  106  A    between atoms: _247  and  _248
REMARK  107  A    between atoms: _247  and  _250
REMARK  108  A    between atoms: _250  and  _251
REMARK  109  A    between atoms: _251  and  _252
REMARK  110  A    between atoms: _257  and  _259
REMARK  111  A    between atoms: _259  and  _260
REMARK  112  A    between atoms: _259  and  _262
REMARK  113  A    between atoms: _262  and  _263
REMARK  114  A    between atoms: _266  and  _268
REMARK  115  A    between atoms: _268  and  _269
REMARK  116  A    between atoms: _271  and  _273
REMARK  117  A    between atoms: _273  and  _274
REMARK  118  A    between atoms: _273  and  _276
REMARK  119  A    between atoms: _276  and  _277
REMARK  120  A    between atoms: _283  and  _285
REMARK  121  A    between atoms: _285  and  _286
REMARK  122  A    between atoms: _285  and  _288
REMARK  123  A    between atoms: _288  and  _289
REMARK  124  A    between atoms: _294  and  _295
REMARK  125  A    between atoms: _297  and  _299
REMARK  126  A    between atoms: _299  and  _300
REMARK  127  A    between atoms: _299  and  _302
REMARK  128  A    between atoms: _305  and  _307
REMARK  129  A    between atoms: _307  and  _308
REMARK  130  A    between atoms: _311  and  _313
REMARK  131  A    between atoms: _313  and  _314
REMARK  132  A    between atoms: _313  and  _316
REMARK  133  A    between atoms: _316  and  _317
REMARK  134  A    between atoms: NI_327  and  _345
REMARK  135  A    between atoms: NI_328  and  _345
REMARK                            x       y       z     vdW  Elec       q    Type
REMARK                         _______ _______ _______ _____ _____    ______ ____
ROOT
ATOM      1  O   HOH     1       7.290   2.126  37.368  0.00  0.00    +0.000 OA
ENDROOT
TORSDOF 0
REMARK  Name = ../refined-set-2016/4lm0/4lm0_pocket.pdb
REMARK  135 active torsions:
REMARK  status: ('A' for Active; 'I' for Inactive)
REMARK    1  A    between atoms: _1  and  _3
REMARK    2  A    between atoms: _3  and  _4
REMARK    3  A    between atoms: _3  and  _6
REMARK    4  A    between atoms: _6  and  _7
REMARK    5  A    between atoms: _12  and  _13
REMARK    6  A    between atoms: _15  and  _17
REMARK    7  A    between atoms: _17  and  _18
REMARK    8  A    between atoms: _17  and  _20
REMARK    9  A    between atoms: _20  and  _21
REMARK   10  A    between atoms: _26  and  _28
REMARK   11  A    between atoms: _28  and  _29
REMARK   12  A    between atoms: _28  and  _31
REMARK   13  A    between atoms: _31  and  _32
REMARK   14  A    between atoms: _36  and  NI_327
REMARK   15  A    between atoms: _37  and  _39
REMARK   16  A    between atoms: _39  and  _40
REMARK   17  A    between atoms: _39  and  _42
REMARK   18  A    between atoms: _42  and  _43
REMARK   19  A    between atoms: _48  and  _50
REMARK   20  A    between atoms: _50  and  _51
REMARK   21  A    between atoms: _50  and  _53
REMARK   22  A    between atoms: _53  and  _54
REMARK   23  A    between atoms: _56  and  _58
REMARK   24  A    between atoms: _58  and  _59
REMARK   25  A    between atoms: _58  and  _61
REMARK   26  A    between atoms: _61  and  _62
REMARK   27  A    between atoms: _67  and  _69
REMARK   28  A    between atoms: _69  and  _70
REMARK   29  A    between atoms: _69  and  _72
REMARK   30  A    between atoms: _72  and  _73
REMARK   31  A    between atoms: _75  and  _77
REMARK   32  A    between atoms: _77  and  _78
REMARK   33  A    between atoms: _77  and  _80
REMARK   34  A    between atoms: _80  and  _81
REMARK   35  A    between atoms: _84  and  _86
REMARK   36  A    between atoms: _86  and  _87
REMARK   37  A    between atoms: _86  and  _89
REMARK   38  A    between atoms: _89  and  _90
REMARK   39  A    between atoms: _93  and  _95
REMARK   40  A    between atoms: _95  and  _96
REMARK   41  A    between atoms: _95  and  _98
REMARK   42  A    between atoms: _98  and  _99
REMARK   43  A    between atoms: _102  and  _104
REMARK   44  A    between atoms: _104  and  _105
REMARK   45  A    between atoms: _108  and  _110
REMARK   46  A    between atoms: _110  and  _111
REMARK   47  A    between atoms: _110  and  _113
REMARK   48  A    between atoms: _113  and  _114
REMARK   49  A    between atoms: _120  and  _122
REMARK   50  A    between atoms: _122  and  _123
REMARK   51  A    between atoms: _122  and  _125
REMARK   52  A    between atoms: _125  and  _126
REMARK   53  A    between atoms: _126  and  _128
REMARK   54  A    between atoms: _128  and  NI_327
REMARK   55  A    between atoms: _129  and  _131
REMARK   56  A    between atoms: _131  and  _132
REMARK   57  A    between atoms: _131  and  _134
REMARK   58  A    between atoms: _134  and  _135
REMARK   59  A    between atoms: _138  and  _140
REMARK   60  A    between atoms: _140  and  _141
REMARK   61  A    between atoms: _140  and  _143
REMARK   62  A    between atoms: _143  and  _144
REMARK   63  A    between atoms: _146  and  _148
REMARK   64  A    between atoms: _148  and  _149
REMARK   65  A    between atoms: _148  and  _151
REMARK   66  A    between atoms: _154  and  _156
REMARK   67  A    between atoms: _156  and  _157
REMARK   68  A    between atoms: _160  and  _162
REMARK   69  A    between atoms: _162  and  _163
REMARK   70  A    between atoms: _162  and  _165
REMARK   71  A    between atoms: _165  and  _166
REMARK   72  A    between atoms: _169  and  _171
REMARK   73  A    between atoms: _171  and  _172
REMARK   74  A    between atoms: _171  and  _174
REMARK   75  A    between atoms: _174  and  _175
REMARK   76  A    between atoms: _180  and  _181
REMARK   77  A    between atoms: _183  and  _185
REMARK   78  A    between atoms: _185  and  _186
REMARK   79  A    between atoms: _185  and  _188
REMARK   80  A    between atoms: _188  and  _189
REMARK   81  A    between atoms: _189  and  _190
REMARK   82  A    between atoms: _193  and  _195
REMARK   83  A    between atoms: _195  and  _196
REMARK   84  A    between atoms: _195  and  _198
REMARK   85  A    between atoms: _198  and  _199
REMARK   86  A    between atoms: _205  and  _207
REMARK   87  A    between atoms: _207  and  _208
REMARK   88  A    between atoms: _207  and  _210
REMARK   89  A    between atoms: _210  and  _211
REMARK   90  A    between atoms: _214  and  _216
REMARK   91  A    between atoms: _216  and  _217
REMARK   92  A    between atoms: _216  and  _219
REMARK   93  A    between atoms: _219  and  _220
REMARK   94  A    between atoms: _220  and  _221
REMARK   95  A    between atoms: _223  and  _225
REMARK   96  A    between atoms: _225  and  _226
REMARK   97  A    between atoms: _225  and  _228
REMARK   98  A    between atoms: _228  and  _229
REMARK   99  A    between atoms: _229  and  _230
REMARK  100  A    between atoms: _232  and  _234
REMARK  101  A    between atoms: _234  and  _235
REMARK  102  A    between atoms: _234  and  _237
REMARK  103  A    between atoms: _240  and  _242
REMARK  104  A    between atoms: _242  and  _243
REMARK  105  A    between atoms: _245  and  _247
REMARK  106  A    between atoms: _247  and  _248
REMARK  107  A    between atoms: _247  and  _250
REMARK  108  A    between atoms: _250  and  _251
REMARK  109  A    between atoms: _251  and  _252
REMARK  110  A    between atoms: _257  and  _259
REMARK  111  A    between atoms: _259  and  _260
REMARK  112  A    between atoms: _259  and  _262
REMARK  113  A    between atoms: _262  and  _263
REMARK  114  A    between atoms: _266  and  _268
REMARK  115  A    between atoms: _268  and  _269
REMARK  116  A    between atoms: _271  and  _273
REMARK  117  A    between atoms: _273  and  _274
REMARK  118  A    between atoms: _273  and  _276
REMARK  119  A    between atoms: _276  and  _277
REMARK  120  A    between atoms: _283  and  _285
REMARK  121  A    between atoms: _285  and  _286
REMARK  122  A    between atoms: _285  and  _288
REMARK  123  A    between atoms: _288  and  _289
REMARK  124  A    between atoms: _294  and  _295
REMARK  125  A    between atoms: _297  and  _299
REMARK  126  A    between atoms: _299  and  _300
REMARK  127  A    between atoms: _299  and  _302
REMARK  128  A    between atoms: _305  and  _307
REMARK  129  A    between atoms: _307  and  _308
REMARK  130  A    between atoms: _311  and  _313
REMARK  131  A    between atoms: _313  and  _314
REMARK  132  A    between atoms: _313  and  _316
REMARK  133  A    between atoms: _316  and  _317
REMARK  134  A    between atoms: NI_327  and  _345
REMARK  135  A    between atoms: NI_328  and  _345
REMARK                            x       y       z     vdW  Elec       q    Type
REMARK                         _______ _______ _______ _____ _____    ______ ____
ROOT
ATOM      1  O   HOH     1       3.667  17.202  48.555  0.00  0.00    +0.000 OA
ENDROOT
TORSDOF 0
REMARK  Name = ../refined-set-2016/4lm0/4lm0_pocket.pdb
REMARK  135 active torsions:
REMARK  status: ('A' for Active; 'I' for Inactive)
REMARK    1  A    between atoms: _1  and  _3
REMARK    2  A    between atoms: _3  and  _4
REMARK    3  A    between atoms: _3  and  _6
REMARK    4  A    between atoms: _6  and  _7
REMARK    5  A    between atoms: _12  and  _13
REMARK    6  A    between atoms: _15  and  _17
REMARK    7  A    between atoms: _17  and  _18
REMARK    8  A    between atoms: _17  and  _20
REMARK    9  A    between atoms: _20  and  _21
REMARK   10  A    between atoms: _26  and  _28
REMARK   11  A    between atoms: _28  and  _29
REMARK   12  A    between atoms: _28  and  _31
REMARK   13  A    between atoms: _31  and  _32
REMARK   14  A    between atoms: _36  and  NI_327
REMARK   15  A    between atoms: _37  and  _39
REMARK   16  A    between atoms: _39  and  _40
REMARK   17  A    between atoms: _39  and  _42
REMARK   18  A    between atoms: _42  and  _43
REMARK   19  A    between atoms: _48  and  _50
REMARK   20  A    between atoms: _50  and  _51
REMARK   21  A    between atoms: _50  and  _53
REMARK   22  A    between atoms: _53  and  _54
REMARK   23  A    between atoms: _56  and  _58
REMARK   24  A    between atoms: _58  and  _59
REMARK   25  A    between atoms: _58  and  _61
REMARK   26  A    between atoms: _61  and  _62
REMARK   27  A    between atoms: _67  and  _69
REMARK   28  A    between atoms: _69  and  _70
REMARK   29  A    between atoms: _69  and  _72
REMARK   30  A    between atoms: _72  and  _73
REMARK   31  A    between atoms: _75  and  _77
REMARK   32  A    between atoms: _77  and  _78
REMARK   33  A    between atoms: _77  and  _80
REMARK   34  A    between atoms: _80  and  _81
REMARK   35  A    between atoms: _84  and  _86
REMARK   36  A    between atoms: _86  and  _87
REMARK   37  A    between atoms: _86  and  _89
REMARK   38  A    between atoms: _89  and  _90
REMARK   39  A    between atoms: _93  and  _95
REMARK   40  A    between atoms: _95  and  _96
REMARK   41  A    between atoms: _95  and  _98
REMARK   42  A    between atoms: _98  and  _99
REMARK   43  A    between atoms: _102  and  _104
REMARK   44  A    between atoms: _104  and  _105
REMARK   45  A    between atoms: _108  and  _110
REMARK   46  A    between atoms: _110  and  _111
REMARK   47  A    between atoms: _110  and  _113
REMARK   48  A    between atoms: _113  and  _114
REMARK   49  A    between atoms: _120  and  _122
REMARK   50  A    between atoms: _122  and  _123
REMARK   51  A    between atoms: _122  and  _125
REMARK   52  A    between atoms: _125  and  _126
REMARK   53  A    between atoms: _126  and  _128
REMARK   54  A    between atoms: _128  and  NI_327
REMARK   55  A    between atoms: _129  and  _131
REMARK   56  A    between atoms: _131  and  _132
REMARK   57  A    between atoms: _131  and  _134
REMARK   58  A    between atoms: _134  and  _135
REMARK   59  A    between atoms: _138  and  _140
REMARK   60  A    between atoms: _140  and  _141
REMARK   61  A    between atoms: _140  and  _143
REMARK   62  A    between atoms: _143  and  _144
REMARK   63  A    between atoms: _146  and  _148
REMARK   64  A    between atoms: _148  and  _149
REMARK   65  A    between atoms: _148  and  _151
REMARK   66  A    between atoms: _154  and  _156
REMARK   67  A    between atoms: _156  and  _157
REMARK   68  A    between atoms: _160  and  _162
REMARK   69  A    between atoms: _162  and  _163
REMARK   70  A    between atoms: _162  and  _165
REMARK   71  A    between atoms: _165  and  _166
REMARK   72  A    between atoms: _169  and  _171
REMARK   73  A    between atoms: _171  and  _172
REMARK   74  A    between atoms: _171  and  _174
REMARK   75  A    between atoms: _174  and  _175
REMARK   76  A    between atoms: _180  and  _181
REMARK   77  A    between atoms: _183  and  _185
REMARK   78  A    between atoms: _185  and  _186
REMARK   79  A    between atoms: _185  and  _188
REMARK   80  A    between atoms: _188  and  _189
REMARK   81  A    between atoms: _189  and  _190
REMARK   82  A    between atoms: _193  and  _195
REMARK   83  A    between atoms: _195  and  _196
REMARK   84  A    between atoms: _195  and  _198
REMARK   85  A    between atoms: _198  and  _199
REMARK   86  A    between atoms: _205  and  _207
REMARK   87  A    between atoms: _207  and  _208
REMARK   88  A    between atoms: _207  and  _210
REMARK   89  A    between atoms: _210  and  _211
REMARK   90  A    between atoms: _214  and  _216
REMARK   91  A    between atoms: _216  and  _217
REMARK   92  A    between atoms: _216  and  _219
REMARK   93  A    between atoms: _219  and  _220
REMARK   94  A    between atoms: _220  and  _221
REMARK   95  A    between atoms: _223  and  _225
REMARK   96  A    between atoms: _225  and  _226
REMARK   97  A    between atoms: _225  and  _228
REMARK   98  A    between atoms: _228  and  _229
REMARK   99  A    between atoms: _229  and  _230
REMARK  100  A    between atoms: _232  and  _234
REMARK  101  A    between atoms: _234  and  _235
REMARK  102  A    between atoms: _234  and  _237
REMARK  103  A    between atoms: _240  and  _242
REMARK  104  A    between atoms: _242  and  _243
REMARK  105  A    between atoms: _245  and  _247
REMARK  106  A    between atoms: _247  and  _248
REMARK  107  A    between atoms: _247  and  _250
REMARK  108  A    between atoms: _250  and  _251
REMARK  109  A    between atoms: _251  and  _252
REMARK  110  A    between atoms: _257  and  _259
REMARK  111  A    between atoms: _259  and  _260
REMARK  112  A    between atoms: _259  and  _262
REMARK  113  A    between atoms: _262  and  _263
REMARK  114  A    between atoms: _266  and  _268
REMARK  115  A    between atoms: _268  and  _269
REMARK  116  A    between atoms: _271  and  _273
REMARK  117  A    between atoms: _273  and  _274
REMARK  118  A    between atoms: _273  and  _276
REMARK  119  A    between atoms: _276  and  _277
REMARK  120  A    between atoms: _283  and  _285
REMARK  121  A    between atoms: _285  and  _286
REMARK  122  A    between atoms: _285  and  _288
REMARK  123  A    between atoms: _288  and  _289
REMARK  124  A    between atoms: _294  and  _295
REMARK  125  A    between atoms: _297  and  _299
REMARK  126  A    between atoms: _299  and  _300
REMARK  127  A    between atoms: _299  and  _302
REMARK  128  A    between atoms: _305  and  _307
REMARK  129  A    between atoms: _307  and  _308
REMARK  130  A    between atoms: _311  and  _313
REMARK  131  A    between atoms: _313  and  _314
REMARK  132  A    between atoms: _313  and  _316
REMARK  133  A    between atoms: _316  and  _317
REMARK  134  A    between atoms: NI_327  and  _345
REMARK  135  A    between atoms: NI_328  and  _345
REMARK                            x       y       z     vdW  Elec       q    Type
REMARK                         _______ _______ _______ _____ _____    ______ ____
ROOT
ATOM      1  O   HOH     1      12.710  11.266  41.142  0.00  0.00    +0.000 OA
ENDROOT
TORSDOF 0
REMARK  Name = ../refined-set-2016/4lm0/4lm0_pocket.pdb
REMARK  135 active torsions:
REMARK  status: ('A' for Active; 'I' for Inactive)
REMARK    1  A    between atoms: _1  and  _3
REMARK    2  A    between atoms: _3  and  _4
REMARK    3  A    between atoms: _3  and  _6
REMARK    4  A    between atoms: _6  and  _7
REMARK    5  A    between atoms: _12  and  _13
REMARK    6  A    between atoms: _15  and  _17
REMARK    7  A    between atoms: _17  and  _18
REMARK    8  A    between atoms: _17  and  _20
REMARK    9  A    between atoms: _20  and  _21
REMARK   10  A    between atoms: _26  and  _28
REMARK   11  A    between atoms: _28  and  _29
REMARK   12  A    between atoms: _28  and  _31
REMARK   13  A    between atoms: _31  and  _32
REMARK   14  A    between atoms: _36  and  NI_327
REMARK   15  A    between atoms: _37  and  _39
REMARK   16  A    between atoms: _39  and  _40
REMARK   17  A    between atoms: _39  and  _42
REMARK   18  A    between atoms: _42  and  _43
REMARK   19  A    between atoms: _48  and  _50
REMARK   20  A    between atoms: _50  and  _51
REMARK   21  A    between atoms: _50  and  _53
REMARK   22  A    between atoms: _53  and  _54
REMARK   23  A    between atoms: _56  and  _58
REMARK   24  A    between atoms: _58  and  _59
REMARK   25  A    between atoms: _58  and  _61
REMARK   26  A    between atoms: _61  and  _62
REMARK   27  A    between atoms: _67  and  _69
REMARK   28  A    between atoms: _69  and  _70
REMARK   29  A    between atoms: _69  and  _72
REMARK   30  A    between atoms: _72  and  _73
REMARK   31  A    between atoms: _75  and  _77
REMARK   32  A    between atoms: _77  and  _78
REMARK   33  A    between atoms: _77  and  _80
REMARK   34  A    between atoms: _80  and  _81
REMARK   35  A    between atoms: _84  and  _86
REMARK   36  A    between atoms: _86  and  _87
REMARK   37  A    between atoms: _86  and  _89
REMARK   38  A    between atoms: _89  and  _90
REMARK   39  A    between atoms: _93  and  _95
REMARK   40  A    between atoms: _95  and  _96
REMARK   41  A    between atoms: _95  and  _98
REMARK   42  A    between atoms: _98  and  _99
REMARK   43  A    between atoms: _102  and  _104
REMARK   44  A    between atoms: _104  and  _105
REMARK   45  A    between atoms: _108  and  _110
REMARK   46  A    between atoms: _110  and  _111
REMARK   47  A    between atoms: _110  and  _113
REMARK   48  A    between atoms: _113  and  _114
REMARK   49  A    between atoms: _120  and  _122
REMARK   50  A    between atoms: _122  and  _123
REMARK   51  A    between atoms: _122  and  _125
REMARK   52  A    between atoms: _125  and  _126
REMARK   53  A    between atoms: _126  and  _128
REMARK   54  A    between atoms: _128  and  NI_327
REMARK   55  A    between atoms: _129  and  _131
REMARK   56  A    between atoms: _131  and  _132
REMARK   57  A    between atoms: _131  and  _134
REMARK   58  A    between atoms: _134  and  _135
REMARK   59  A    between atoms: _138  and  _140
REMARK   60  A    between atoms: _140  and  _141
REMARK   61  A    between atoms: _140  and  _143
REMARK   62  A    between atoms: _143  and  _144
REMARK   63  A    between atoms: _146  and  _148
REMARK   64  A    between atoms: _148  and  _149
REMARK   65  A    between atoms: _148  and  _151
REMARK   66  A    between atoms: _154  and  _156
REMARK   67  A    between atoms: _156  and  _157
REMARK   68  A    between atoms: _160  and  _162
REMARK   69  A    between atoms: _162  and  _163
REMARK   70  A    between atoms: _162  and  _165
REMARK   71  A    between atoms: _165  and  _166
REMARK   72  A    between atoms: _169  and  _171
REMARK   73  A    between atoms: _171  and  _172
REMARK   74  A    between atoms: _171  and  _174
REMARK   75  A    between atoms: _174  and  _175
REMARK   76  A    between atoms: _180  and  _181
REMARK   77  A    between atoms: _183  and  _185
REMARK   78  A    between atoms: _185  and  _186
REMARK   79  A    between atoms: _185  and  _188
REMARK   80  A    between atoms: _188  and  _189
REMARK   81  A    between atoms: _189  and  _190
REMARK   82  A    between atoms: _193  and  _195
REMARK   83  A    between atoms: _195  and  _196
REMARK   84  A    between atoms: _195  and  _198
REMARK   85  A    between atoms: _198  and  _199
REMARK   86  A    between atoms: _205  and  _207
REMARK   87  A    between atoms: _207  and  _208
REMARK   88  A    between atoms: _207  and  _210
REMARK   89  A    between atoms: _210  and  _211
REMARK   90  A    between atoms: _214  and  _216
REMARK   91  A    between atoms: _216  and  _217
REMARK   92  A    between atoms: _216  and  _219
REMARK   93  A    between atoms: _219  and  _220
REMARK   94  A    between atoms: _220  and  _221
REMARK   95  A    between atoms: _223  and  _225
REMARK   96  A    between atoms: _225  and  _226
REMARK   97  A    between atoms: _225  and  _228
REMARK   98  A    between atoms: _228  and  _229
REMARK   99  A    between atoms: _229  and  _230
REMARK  100  A    between atoms: _232  and  _234
REMARK  101  A    between atoms: _234  and  _235
REMARK  102  A    between atoms: _234  and  _237
REMARK  103  A    between atoms: _240  and  _242
REMARK  104  A    between atoms: _242  and  _243
REMARK  105  A    between atoms: _245  and  _247
REMARK  106  A    between atoms: _247  and  _248
REMARK  107  A    between atoms: _247  and  _250
REMARK  108  A    between atoms: _250  and  _251
REMARK  109  A    between atoms: _251  and  _252
REMARK  110  A    between atoms: _257  and  _259
REMARK  111  A    between atoms: _259  and  _260
REMARK  112  A    between atoms: _259  and  _262
REMARK  113  A    between atoms: _262  and  _263
REMARK  114  A    between atoms: _266  and  _268
REMARK  115  A    between atoms: _268  and  _269
REMARK  116  A    between atoms: _271  and  _273
REMARK  117  A    between atoms: _273  and  _274
REMARK  118  A    between atoms: _273  and  _276
REMARK  119  A    between atoms: _276  and  _277
REMARK  120  A    between atoms: _283  and  _285
REMARK  121  A    between atoms: _285  and  _286
REMARK  122  A    between atoms: _285  and  _288
REMARK  123  A    between atoms: _288  and  _289
REMARK  124  A    between atoms: _294  and  _295
REMARK  125  A    between atoms: _297  and  _299
REMARK  126  A    between atoms: _299  and  _300
REMARK  127  A    between atoms: _299  and  _302
REMARK  128  A    between atoms: _305  and  _307
REMARK  129  A    between atoms: _307  and  _308
REMARK  130  A    between atoms: _311  and  _313
REMARK  131  A    between atoms: _313  and  _314
REMARK  132  A    between atoms: _313  and  _316
REMARK  133  A    between atoms: _316  and  _317
REMARK  134  A    between atoms: NI_327  and  _345
REMARK  135  A    between atoms: NI_328  and  _345
REMARK                            x       y       z     vdW  Elec       q    Type
REMARK                         _______ _______ _______ _____ _____    ______ ____
ROOT
ATOM      1  O   HOH     1      10.791  13.232  42.881  0.00  0.00    +0.000 OA
ENDROOT
TORSDOF 0
REMARK  Name = ../refined-set-2016/4lm0/4lm0_pocket.pdb
REMARK  135 active torsions:
REMARK  status: ('A' for Active; 'I' for Inactive)
REMARK    1  A    between atoms: _1  and  _3
REMARK    2  A    between atoms: _3  and  _4
REMARK    3  A    between atoms: _3  and  _6
REMARK    4  A    between atoms: _6  and  _7
REMARK    5  A    between atoms: _12  and  _13
REMARK    6  A    between atoms: _15  and  _17
REMARK    7  A    between atoms: _17  and  _18
REMARK    8  A    between atoms: _17  and  _20
REMARK    9  A    between atoms: _20  and  _21
REMARK   10  A    between atoms: _26  and  _28
REMARK   11  A    between atoms: _28  and  _29
REMARK   12  A    between atoms: _28  and  _31
REMARK   13  A    between atoms: _31  and  _32
REMARK   14  A    between atoms: _36  and  NI_327
REMARK   15  A    between atoms: _37  and  _39
REMARK   16  A    between atoms: _39  and  _40
REMARK   17  A    between atoms: _39  and  _42
REMARK   18  A    between atoms: _42  and  _43
REMARK   19  A    between atoms: _48  and  _50
REMARK   20  A    between atoms: _50  and  _51
REMARK   21  A    between atoms: _50  and  _53
REMARK   22  A    between atoms: _53  and  _54
REMARK   23  A    between atoms: _56  and  _58
REMARK   24  A    between atoms: _58  and  _59
REMARK   25  A    between atoms: _58  and  _61
REMARK   26  A    between atoms: _61  and  _62
REMARK   27  A    between atoms: _67  and  _69
REMARK   28  A    between atoms: _69  and  _70
REMARK   29  A    between atoms: _69  and  _72
REMARK   30  A    between atoms: _72  and  _73
REMARK   31  A    between atoms: _75  and  _77
REMARK   32  A    between atoms: _77  and  _78
REMARK   33  A    between atoms: _77  and  _80
REMARK   34  A    between atoms: _80  and  _81
REMARK   35  A    between atoms: _84  and  _86
REMARK   36  A    between atoms: _86  and  _87
REMARK   37  A    between atoms: _86  and  _89
REMARK   38  A    between atoms: _89  and  _90
REMARK   39  A    between atoms: _93  and  _95
REMARK   40  A    between atoms: _95  and  _96
REMARK   41  A    between atoms: _95  and  _98
REMARK   42  A    between atoms: _98  and  _99
REMARK   43  A    between atoms: _102  and  _104
REMARK   44  A    between atoms: _104  and  _105
REMARK   45  A    between atoms: _108  and  _110
REMARK   46  A    between atoms: _110  and  _111
REMARK   47  A    between atoms: _110  and  _113
REMARK   48  A    between atoms: _113  and  _114
REMARK   49  A    between atoms: _120  and  _122
REMARK   50  A    between atoms: _122  and  _123
REMARK   51  A    between atoms: _122  and  _125
REMARK   52  A    between atoms: _125  and  _126
REMARK   53  A    between atoms: _126  and  _128
REMARK   54  A    between atoms: _128  and  NI_327
REMARK   55  A    between atoms: _129  and  _131
REMARK   56  A    between atoms: _131  and  _132
REMARK   57  A    between atoms: _131  and  _134
REMARK   58  A    between atoms: _134  and  _135
REMARK   59  A    between atoms: _138  and  _140
REMARK   60  A    between atoms: _140  and  _141
REMARK   61  A    between atoms: _140  and  _143
REMARK   62  A    between atoms: _143  and  _144
REMARK   63  A    between atoms: _146  and  _148
REMARK   64  A    between atoms: _148  and  _149
REMARK   65  A    between atoms: _148  and  _151
REMARK   66  A    between atoms: _154  and  _156
REMARK   67  A    between atoms: _156  and  _157
REMARK   68  A    between atoms: _160  and  _162
REMARK   69  A    between atoms: _162  and  _163
REMARK   70  A    between atoms: _162  and  _165
REMARK   71  A    between atoms: _165  and  _166
REMARK   72  A    between atoms: _169  and  _171
REMARK   73  A    between atoms: _171  and  _172
REMARK   74  A    between atoms: _171  and  _174
REMARK   75  A    between atoms: _174  and  _175
REMARK   76  A    between atoms: _180  and  _181
REMARK   77  A    between atoms: _183  and  _185
REMARK   78  A    between atoms: _185  and  _186
REMARK   79  A    between atoms: _185  and  _188
REMARK   80  A    between atoms: _188  and  _189
REMARK   81  A    between atoms: _189  and  _190
REMARK   82  A    between atoms: _193  and  _195
REMARK   83  A    between atoms: _195  and  _196
REMARK   84  A    between atoms: _195  and  _198
REMARK   85  A    between atoms: _198  and  _199
REMARK   86  A    between atoms: _205  and  _207
REMARK   87  A    between atoms: _207  and  _208
REMARK   88  A    between atoms: _207  and  _210
REMARK   89  A    between atoms: _210  and  _211
REMARK   90  A    between atoms: _214  and  _216
REMARK   91  A    between atoms: _216  and  _217
REMARK   92  A    between atoms: _216  and  _219
REMARK   93  A    between atoms: _219  and  _220
REMARK   94  A    between atoms: _220  and  _221
REMARK   95  A    between atoms: _223  and  _225
REMARK   96  A    between atoms: _225  and  _226
REMARK   97  A    between atoms: _225  and  _228
REMARK   98  A    between atoms: _228  and  _229
REMARK   99  A    between atoms: _229  and  _230
REMARK  100  A    between atoms: _232  and  _234
REMARK  101  A    between atoms: _234  and  _235
REMARK  102  A    between atoms: _234  and  _237
REMARK  103  A    between atoms: _240  and  _242
REMARK  104  A    between atoms: _242  and  _243
REMARK  105  A    between atoms: _245  and  _247
REMARK  106  A    between atoms: _247  and  _248
REMARK  107  A    between atoms: _247  and  _250
REMARK  108  A    between atoms: _250  and  _251
REMARK  109  A    between atoms: _251  and  _252
REMARK  110  A    between atoms: _257  and  _259
REMARK  111  A    between atoms: _259  and  _260
REMARK  112  A    between atoms: _259  and  _262
REMARK  113  A    between atoms: _262  and  _263
REMARK  114  A    between atoms: _266  and  _268
REMARK  115  A    between atoms: _268  and  _269
REMARK  116  A    between atoms: _271  and  _273
REMARK  117  A    between atoms: _273  and  _274
REMARK  118  A    between atoms: _273  and  _276
REMARK  119  A    between atoms: _276  and  _277
REMARK  120  A    between atoms: _283  and  _285
REMARK  121  A    between atoms: _285  and  _286
REMARK  122  A    between atoms: _285  and  _288
REMARK  123  A    between atoms: _288  and  _289
REMARK  124  A    between atoms: _294  and  _295
REMARK  125  A    between atoms: _297  and  _299
REMARK  126  A    between atoms: _299  and  _300
REMARK  127  A    between atoms: _299  and  _302
REMARK  128  A    between atoms: _305  and  _307
REMARK  129  A    between atoms: _307  and  _308
REMARK  130  A    between atoms: _311  and  _313
REMARK  131  A    between atoms: _313  and  _314
REMARK  132  A    between atoms: _313  and  _316
REMARK  133  A    between atoms: _316  and  _317
REMARK  134  A    between atoms: NI_327  and  _345
REMARK  135  A    between atoms: NI_328  and  _345
REMARK                            x       y       z     vdW  Elec       q    Type
REMARK                         _______ _______ _______ _____ _____    ______ ____
ROOT
ATOM      1  O   HOH     1      11.046   9.218  40.416  0.00  0.00    +0.000 OA
ENDROOT
TORSDOF 0
REMARK  Name = ../refined-set-2016/4lm0/4lm0_pocket.pdb
REMARK  135 active torsions:
REMARK  status: ('A' for Active; 'I' for Inactive)
REMARK    1  A    between atoms: _1  and  _3
REMARK    2  A    between atoms: _3  and  _4
REMARK    3  A    between atoms: _3  and  _6
REMARK    4  A    between atoms: _6  and  _7
REMARK    5  A    between atoms: _12  and  _13
REMARK    6  A    between atoms: _15  and  _17
REMARK    7  A    between atoms: _17  and  _18
REMARK    8  A    between atoms: _17  and  _20
REMARK    9  A    between atoms: _20  and  _21
REMARK   10  A    between atoms: _26  and  _28
REMARK   11  A    between atoms: _28  and  _29
REMARK   12  A    between atoms: _28  and  _31
REMARK   13  A    between atoms: _31  and  _32
REMARK   14  A    between atoms: _36  and  NI_327
REMARK   15  A    between atoms: _37  and  _39
REMARK   16  A    between atoms: _39  and  _40
REMARK   17  A    between atoms: _39  and  _42
REMARK   18  A    between atoms: _42  and  _43
REMARK   19  A    between atoms: _48  and  _50
REMARK   20  A    between atoms: _50  and  _51
REMARK   21  A    between atoms: _50  and  _53
REMARK   22  A    between atoms: _53  and  _54
REMARK   23  A    between atoms: _56  and  _58
REMARK   24  A    between atoms: _58  and  _59
REMARK   25  A    between atoms: _58  and  _61
REMARK   26  A    between atoms: _61  and  _62
REMARK   27  A    between atoms: _67  and  _69
REMARK   28  A    between atoms: _69  and  _70
REMARK   29  A    between atoms: _69  and  _72
REMARK   30  A    between atoms: _72  and  _73
REMARK   31  A    between atoms: _75  and  _77
REMARK   32  A    between atoms: _77  and  _78
REMARK   33  A    between atoms: _77  and  _80
REMARK   34  A    between atoms: _80  and  _81
REMARK   35  A    between atoms: _84  and  _86
REMARK   36  A    between atoms: _86  and  _87
REMARK   37  A    between atoms: _86  and  _89
REMARK   38  A    between atoms: _89  and  _90
REMARK   39  A    between atoms: _93  and  _95
REMARK   40  A    between atoms: _95  and  _96
REMARK   41  A    between atoms: _95  and  _98
REMARK   42  A    between atoms: _98  and  _99
REMARK   43  A    between atoms: _102  and  _104
REMARK   44  A    between atoms: _104  and  _105
REMARK   45  A    between atoms: _108  and  _110
REMARK   46  A    between atoms: _110  and  _111
REMARK   47  A    between atoms: _110  and  _113
REMARK   48  A    between atoms: _113  and  _114
REMARK   49  A    between atoms: _120  and  _122
REMARK   50  A    between atoms: _122  and  _123
REMARK   51  A    between atoms: _122  and  _125
REMARK   52  A    between atoms: _125  and  _126
REMARK   53  A    between atoms: _126  and  _128
REMARK   54  A    between atoms: _128  and  NI_327
REMARK   55  A    between atoms: _129  and  _131
REMARK   56  A    between atoms: _131  and  _132
REMARK   57  A    between atoms: _131  and  _134
REMARK   58  A    between atoms: _134  and  _135
REMARK   59  A    between atoms: _138  and  _140
REMARK   60  A    between atoms: _140  and  _141
REMARK   61  A    between atoms: _140  and  _143
REMARK   62  A    between atoms: _143  and  _144
REMARK   63  A    between atoms: _146  and  _148
REMARK   64  A    between atoms: _148  and  _149
REMARK   65  A    between atoms: _148  and  _151
REMARK   66  A    between atoms: _154  and  _156
REMARK   67  A    between atoms: _156  and  _157
REMARK   68  A    between atoms: _160  and  _162
REMARK   69  A    between atoms: _162  and  _163
REMARK   70  A    between atoms: _162  and  _165
REMARK   71  A    between atoms: _165  and  _166
REMARK   72  A    between atoms: _169  and  _171
REMARK   73  A    between atoms: _171  and  _172
REMARK   74  A    between atoms: _171  and  _174
REMARK   75  A    between atoms: _174  and  _175
REMARK   76  A    between atoms: _180  and  _181
REMARK   77  A    between atoms: _183  and  _185
REMARK   78  A    between atoms: _185  and  _186
REMARK   79  A    between atoms: _185  and  _188
REMARK   80  A    between atoms: _188  and  _189
REMARK   81  A    between atoms: _189  and  _190
REMARK   82  A    between atoms: _193  and  _195
REMARK   83  A    between atoms: _195  and  _196
REMARK   84  A    between atoms: _195  and  _198
REMARK   85  A    between atoms: _198  and  _199
REMARK   86  A    between atoms: _205  and  _207
REMARK   87  A    between atoms: _207  and  _208
REMARK   88  A    between atoms: _207  and  _210
REMARK   89  A    between atoms: _210  and  _211
REMARK   90  A    between atoms: _214  and  _216
REMARK   91  A    between atoms: _216  and  _217
REMARK   92  A    between atoms: _216  and  _219
REMARK   93  A    between atoms: _219  and  _220
REMARK   94  A    between atoms: _220  and  _221
REMARK   95  A    between atoms: _223  and  _225
REMARK   96  A    between atoms: _225  and  _226
REMARK   97  A    between atoms: _225  and  _228
REMARK   98  A    between atoms: _228  and  _229
REMARK   99  A    between atoms: _229  and  _230
REMARK  100  A    between atoms: _232  and  _234
REMARK  101  A    between atoms: _234  and  _235
REMARK  102  A    between atoms: _234  and  _237
REMARK  103  A    between atoms: _240  and  _242
REMARK  104  A    between atoms: _242  and  _243
REMARK  105  A    between atoms: _245  and  _247
REMARK  106  A    between atoms: _247  and  _248
REMARK  107  A    between atoms: _247  and  _250
REMARK  108  A    between atoms: _250  and  _251
REMARK  109  A    between atoms: _251  and  _252
REMARK  110  A    between atoms: _257  and  _259
REMARK  111  A    between atoms: _259  and  _260
REMARK  112  A    between atoms: _259  and  _262
REMARK  113  A    between atoms: _262  and  _263
REMARK  114  A    between atoms: _266  and  _268
REMARK  115  A    between atoms: _268  and  _269
REMARK  116  A    between atoms: _271  and  _273
REMARK  117  A    between atoms: _273  and  _274
REMARK  118  A    between atoms: _273  and  _276
REMARK  119  A    between atoms: _276  and  _277
REMARK  120  A    between atoms: _283  and  _285
REMARK  121  A    between atoms: _285  and  _286
REMARK  122  A    between atoms: _285  and  _288
REMARK  123  A    between atoms: _288  and  _289
REMARK  124  A    between atoms: _294  and  _295
REMARK  125  A    between atoms: _297  and  _299
REMARK  126  A    between atoms: _299  and  _300
REMARK  127  A    between atoms: _299  and  _302
REMARK  128  A    between atoms: _305  and  _307
REMARK  129  A    between atoms: _307  and  _308
REMARK  130  A    between atoms: _311  and  _313
REMARK  131  A    between atoms: _313  and  _314
REMARK  132  A    between atoms: _313  and  _316
REMARK  133  A    between atoms: _316  and  _317
REMARK  134  A    between atoms: NI_327  and  _345
REMARK  135  A    between atoms: NI_328  and  _345
REMARK                            x       y       z     vdW  Elec       q    Type
REMARK                         _______ _______ _______ _____ _____    ______ ____
ROOT
ATOM      1  O   HOH     1       3.485  19.647  36.056  0.00  0.00    +0.000 OA
ENDROOT
TORSDOF 0
REMARK  Name = ../refined-set-2016/4lm0/4lm0_pocket.pdb
REMARK  135 active torsions:
REMARK  status: ('A' for Active; 'I' for Inactive)
REMARK    1  A    between atoms: _1  and  _3
REMARK    2  A    between atoms: _3  and  _4
REMARK    3  A    between atoms: _3  and  _6
REMARK    4  A    between atoms: _6  and  _7
REMARK    5  A    between atoms: _12  and  _13
REMARK    6  A    between atoms: _15  and  _17
REMARK    7  A    between atoms: _17  and  _18
REMARK    8  A    between atoms: _17  and  _20
REMARK    9  A    between atoms: _20  and  _21
REMARK   10  A    between atoms: _26  and  _28
REMARK   11  A    between atoms: _28  and  _29
REMARK   12  A    between atoms: _28  and  _31
REMARK   13  A    between atoms: _31  and  _32
REMARK   14  A    between atoms: _36  and  NI_327
REMARK   15  A    between atoms: _37  and  _39
REMARK   16  A    between atoms: _39  and  _40
REMARK   17  A    between atoms: _39  and  _42
REMARK   18  A    between atoms: _42  and  _43
REMARK   19  A    between atoms: _48  and  _50
REMARK   20  A    between atoms: _50  and  _51
REMARK   21  A    between atoms: _50  and  _53
REMARK   22  A    between atoms: _53  and  _54
REMARK   23  A    between atoms: _56  and  _58
REMARK   24  A    between atoms: _58  and  _59
REMARK   25  A    between atoms: _58  and  _61
REMARK   26  A    between atoms: _61  and  _62
REMARK   27  A    between atoms: _67  and  _69
REMARK   28  A    between atoms: _69  and  _70
REMARK   29  A    between atoms: _69  and  _72
REMARK   30  A    between atoms: _72  and  _73
REMARK   31  A    between atoms: _75  and  _77
REMARK   32  A    between atoms: _77  and  _78
REMARK   33  A    between atoms: _77  and  _80
REMARK   34  A    between atoms: _80  and  _81
REMARK   35  A    between atoms: _84  and  _86
REMARK   36  A    between atoms: _86  and  _87
REMARK   37  A    between atoms: _86  and  _89
REMARK   38  A    between atoms: _89  and  _90
REMARK   39  A    between atoms: _93  and  _95
REMARK   40  A    between atoms: _95  and  _96
REMARK   41  A    between atoms: _95  and  _98
REMARK   42  A    between atoms: _98  and  _99
REMARK   43  A    between atoms: _102  and  _104
REMARK   44  A    between atoms: _104  and  _105
REMARK   45  A    between atoms: _108  and  _110
REMARK   46  A    between atoms: _110  and  _111
REMARK   47  A    between atoms: _110  and  _113
REMARK   48  A    between atoms: _113  and  _114
REMARK   49  A    between atoms: _120  and  _122
REMARK   50  A    between atoms: _122  and  _123
REMARK   51  A    between atoms: _122  and  _125
REMARK   52  A    between atoms: _125  and  _126
REMARK   53  A    between atoms: _126  and  _128
REMARK   54  A    between atoms: _128  and  NI_327
REMARK   55  A    between atoms: _129  and  _131
REMARK   56  A    between atoms: _131  and  _132
REMARK   57  A    between atoms: _131  and  _134
REMARK   58  A    between atoms: _134  and  _135
REMARK   59  A    between atoms: _138  and  _140
REMARK   60  A    between atoms: _140  and  _141
REMARK   61  A    between atoms: _140  and  _143
REMARK   62  A    between atoms: _143  and  _144
REMARK   63  A    between atoms: _146  and  _148
REMARK   64  A    between atoms: _148  and  _149
REMARK   65  A    between atoms: _148  and  _151
REMARK   66  A    between atoms: _154  and  _156
REMARK   67  A    between atoms: _156  and  _157
REMARK   68  A    between atoms: _160  and  _162
REMARK   69  A    between atoms: _162  and  _163
REMARK   70  A    between atoms: _162  and  _165
REMARK   71  A    between atoms: _165  and  _166
REMARK   72  A    between atoms: _169  and  _171
REMARK   73  A    between atoms: _171  and  _172
REMARK   74  A    between atoms: _171  and  _174
REMARK   75  A    between atoms: _174  and  _175
REMARK   76  A    between atoms: _180  and  _181
REMARK   77  A    between atoms: _183  and  _185
REMARK   78  A    between atoms: _185  and  _186
REMARK   79  A    between atoms: _185  and  _188
REMARK   80  A    between atoms: _188  and  _189
REMARK   81  A    between atoms: _189  and  _190
REMARK   82  A    between atoms: _193  and  _195
REMARK   83  A    between atoms: _195  and  _196
REMARK   84  A    between atoms: _195  and  _198
REMARK   85  A    between atoms: _198  and  _199
REMARK   86  A    between atoms: _205  and  _207
REMARK   87  A    between atoms: _207  and  _208
REMARK   88  A    between atoms: _207  and  _210
REMARK   89  A    between atoms: _210  and  _211
REMARK   90  A    between atoms: _214  and  _216
REMARK   91  A    between atoms: _216  and  _217
REMARK   92  A    between atoms: _216  and  _219
REMARK   93  A    between atoms: _219  and  _220
REMARK   94  A    between atoms: _220  and  _221
REMARK   95  A    between atoms: _223  and  _225
REMARK   96  A    between atoms: _225  and  _226
REMARK   97  A    between atoms: _225  and  _228
REMARK   98  A    between atoms: _228  and  _229
REMARK   99  A    between atoms: _229  and  _230
REMARK  100  A    between atoms: _232  and  _234
REMARK  101  A    between atoms: _234  and  _235
REMARK  102  A    between atoms: _234  and  _237
REMARK  103  A    between atoms: _240  and  _242
REMARK  104  A    between atoms: _242  and  _243
REMARK  105  A    between atoms: _245  and  _247
REMARK  106  A    between atoms: _247  and  _248
REMARK  107  A    between atoms: _247  and  _250
REMARK  108  A    between atoms: _250  and  _251
REMARK  109  A    between atoms: _251  and  _252
REMARK  110  A    between atoms: _257  and  _259
REMARK  111  A    between atoms: _259  and  _260
REMARK  112  A    between atoms: _259  and  _262
REMARK  113  A    between atoms: _262  and  _263
REMARK  114  A    between atoms: _266  and  _268
REMARK  115  A    between atoms: _268  and  _269
REMARK  116  A    between atoms: _271  and  _273
REMARK  117  A    between atoms: _273  and  _274
REMARK  118  A    between atoms: _273  and  _276
REMARK  119  A    between atoms: _276  and  _277
REMARK  120  A    between atoms: _283  and  _285
REMARK  121  A    between atoms: _285  and  _286
REMARK  122  A    between atoms: _285  and  _288
REMARK  123  A    between atoms: _288  and  _289
REMARK  124  A    between atoms: _294  and  _295
REMARK  125  A    between atoms: _297  and  _299
REMARK  126  A    between atoms: _299  and  _300
REMARK  127  A    between atoms: _299  and  _302
REMARK  128  A    between atoms: _305  and  _307
REMARK  129  A    between atoms: _307  and  _308
REMARK  130  A    between atoms: _311  and  _313
REMARK  131  A    between atoms: _313  and  _314
REMARK  132  A    between atoms: _313  and  _316
REMARK  133  A    between atoms: _316  and  _317
REMARK  134  A    between atoms: NI_327  and  _345
REMARK  135  A    between atoms: NI_328  and  _345
REMARK                            x       y       z     vdW  Elec       q    Type
REMARK                         _______ _______ _______ _____ _____    ______ ____
ROOT
ATOM      1  O   HOH     1       6.787   9.459  47.359  0.00  0.00    +0.000 OA
ENDROOT
TORSDOF 0
REMARK  Name = ../refined-set-2016/4lm0/4lm0_pocket.pdb
REMARK  135 active torsions:
REMARK  status: ('A' for Active; 'I' for Inactive)
REMARK    1  A    between atoms: _1  and  _3
REMARK    2  A    between atoms: _3  and  _4
REMARK    3  A    between atoms: _3  and  _6
REMARK    4  A    between atoms: _6  and  _7
REMARK    5  A    between atoms: _12  and  _13
REMARK    6  A    between atoms: _15  and  _17
REMARK    7  A    between atoms: _17  and  _18
REMARK    8  A    between atoms: _17  and  _20
REMARK    9  A    between atoms: _20  and  _21
REMARK   10  A    between atoms: _26  and  _28
REMARK   11  A    between atoms: _28  and  _29
REMARK   12  A    between atoms: _28  and  _31
REMARK   13  A    between atoms: _31  and  _32
REMARK   14  A    between atoms: _36  and  NI_327
REMARK   15  A    between atoms: _37  and  _39
REMARK   16  A    between atoms: _39  and  _40
REMARK   17  A    between atoms: _39  and  _42
REMARK   18  A    between atoms: _42  and  _43
REMARK   19  A    between atoms: _48  and  _50
REMARK   20  A    between atoms: _50  and  _51
REMARK   21  A    between atoms: _50  and  _53
REMARK   22  A    between atoms: _53  and  _54
REMARK   23  A    between atoms: _56  and  _58
REMARK   24  A    between atoms: _58  and  _59
REMARK   25  A    between atoms: _58  and  _61
REMARK   26  A    between atoms: _61  and  _62
REMARK   27  A    between atoms: _67  and  _69
REMARK   28  A    between atoms: _69  and  _70
REMARK   29  A    between atoms: _69  and  _72
REMARK   30  A    between atoms: _72  and  _73
REMARK   31  A    between atoms: _75  and  _77
REMARK   32  A    between atoms: _77  and  _78
REMARK   33  A    between atoms: _77  and  _80
REMARK   34  A    between atoms: _80  and  _81
REMARK   35  A    between atoms: _84  and  _86
REMARK   36  A    between atoms: _86  and  _87
REMARK   37  A    between atoms: _86  and  _89
REMARK   38  A    between atoms: _89  and  _90
REMARK   39  A    between atoms: _93  and  _95
REMARK   40  A    between atoms: _95  and  _96
REMARK   41  A    between atoms: _95  and  _98
REMARK   42  A    between atoms: _98  and  _99
REMARK   43  A    between atoms: _102  and  _104
REMARK   44  A    between atoms: _104  and  _105
REMARK   45  A    between atoms: _108  and  _110
REMARK   46  A    between atoms: _110  and  _111
REMARK   47  A    between atoms: _110  and  _113
REMARK   48  A    between atoms: _113  and  _114
REMARK   49  A    between atoms: _120  and  _122
REMARK   50  A    between atoms: _122  and  _123
REMARK   51  A    between atoms: _122  and  _125
REMARK   52  A    between atoms: _125  and  _126
REMARK   53  A    between atoms: _126  and  _128
REMARK   54  A    between atoms: _128  and  NI_327
REMARK   55  A    between atoms: _129  and  _131
REMARK   56  A    between atoms: _131  and  _132
REMARK   57  A    between atoms: _131  and  _134
REMARK   58  A    between atoms: _134  and  _135
REMARK   59  A    between atoms: _138  and  _140
REMARK   60  A    between atoms: _140  and  _141
REMARK   61  A    between atoms: _140  and  _143
REMARK   62  A    between atoms: _143  and  _144
REMARK   63  A    between atoms: _146  and  _148
REMARK   64  A    between atoms: _148  and  _149
REMARK   65  A    between atoms: _148  and  _151
REMARK   66  A    between atoms: _154  and  _156
REMARK   67  A    between atoms: _156  and  _157
REMARK   68  A    between atoms: _160  and  _162
REMARK   69  A    between atoms: _162  and  _163
REMARK   70  A    between atoms: _162  and  _165
REMARK   71  A    between atoms: _165  and  _166
REMARK   72  A    between atoms: _169  and  _171
REMARK   73  A    between atoms: _171  and  _172
REMARK   74  A    between atoms: _171  and  _174
REMARK   75  A    between atoms: _174  and  _175
REMARK   76  A    between atoms: _180  and  _181
REMARK   77  A    between atoms: _183  and  _185
REMARK   78  A    between atoms: _185  and  _186
REMARK   79  A    between atoms: _185  and  _188
REMARK   80  A    between atoms: _188  and  _189
REMARK   81  A    between atoms: _189  and  _190
REMARK   82  A    between atoms: _193  and  _195
REMARK   83  A    between atoms: _195  and  _196
REMARK   84  A    between atoms: _195  and  _198
REMARK   85  A    between atoms: _198  and  _199
REMARK   86  A    between atoms: _205  and  _207
REMARK   87  A    between atoms: _207  and  _208
REMARK   88  A    between atoms: _207  and  _210
REMARK   89  A    between atoms: _210  and  _211
REMARK   90  A    between atoms: _214  and  _216
REMARK   91  A    between atoms: _216  and  _217
REMARK   92  A    between atoms: _216  and  _219
REMARK   93  A    between atoms: _219  and  _220
REMARK   94  A    between atoms: _220  and  _221
REMARK   95  A    between atoms: _223  and  _225
REMARK   96  A    between atoms: _225  and  _226
REMARK   97  A    between atoms: _225  and  _228
REMARK   98  A    between atoms: _228  and  _229
REMARK   99  A    between atoms: _229  and  _230
REMARK  100  A    between atoms: _232  and  _234
REMARK  101  A    between atoms: _234  and  _235
REMARK  102  A    between atoms: _234  and  _237
REMARK  103  A    between atoms: _240  and  _242
REMARK  104  A    between atoms: _242  and  _243
REMARK  105  A    between atoms: _245  and  _247
REMARK  106  A    between atoms: _247  and  _248
REMARK  107  A    between atoms: _247  and  _250
REMARK  108  A    between atoms: _250  and  _251
REMARK  109  A    between atoms: _251  and  _252
REMARK  110  A    between atoms: _257  and  _259
REMARK  111  A    between atoms: _259  and  _260
REMARK  112  A    between atoms: _259  and  _262
REMARK  113  A    between atoms: _262  and  _263
REMARK  114  A    between atoms: _266  and  _268
REMARK  115  A    between atoms: _268  and  _269
REMARK  116  A    between atoms: _271  and  _273
REMARK  117  A    between atoms: _273  and  _274
REMARK  118  A    between atoms: _273  and  _276
REMARK  119  A    between atoms: _276  and  _277
REMARK  120  A    between atoms: _283  and  _285
REMARK  121  A    between atoms: _285  and  _286
REMARK  122  A    between atoms: _285  and  _288
REMARK  123  A    between atoms: _288  and  _289
REMARK  124  A    between atoms: _294  and  _295
REMARK  125  A    between atoms: _297  and  _299
REMARK  126  A    between atoms: _299  and  _300
REMARK  127  A    between atoms: _299  and  _302
REMARK  128  A    between atoms: _305  and  _307
REMARK  129  A    between atoms: _307  and  _308
REMARK  130  A    between atoms: _311  and  _313
REMARK  131  A    between atoms: _313  and  _314
REMARK  132  A    between atoms: _313  and  _316
REMARK  133  A    between atoms: _316  and  _317
REMARK  134  A    between atoms: NI_327  and  _345
REMARK  135  A    between atoms: NI_328  and  _345
REMARK                            x       y       z     vdW  Elec       q    Type
REMARK                         _______ _______ _______ _____ _____    ______ ____
ROOT
ATOM      1  O   HOH     1       4.531  12.588  47.731  0.00  0.00    +0.000 OA
ENDROOT
TORSDOF 0
