REMARK  Name = ../refined-set-2016/1yvm/1yvm_pocket.pdb
REMARK  134 active torsions:
REMARK  status: ('A' for Active; 'I' for Inactive)
REMARK    1  A    between atoms: _1  and  _3
REMARK    2  A    between atoms: _3  and  _4
REMARK    3  A    between atoms: _3  and  _6
REMARK    4  A    between atoms: _6  and  _7
REMARK    5  A    between atoms: _9  and  _11
REMARK    6  A    between atoms: _11  and  _12
REMARK    7  A    between atoms: _15  and  _17
REMARK    8  A    between atoms: _17  and  _18
REMARK    9  A    between atoms: _17  and  _20
REMARK   10  A    between atoms: _22  and  _24
REMARK   11  A    between atoms: _24  and  _25
REMARK   12  A    between atoms: _24  and  _27
REMARK   13  A    between atoms: _27  and  _28
REMARK   14  A    between atoms: _31  and  _33
REMARK   15  A    between atoms: _33  and  _34
REMARK   16  A    between atoms: _36  and  _38
REMARK   17  A    between atoms: _38  and  _39
REMARK   18  A    between atoms: _38  and  _41
REMARK   19  A    between atoms: _41  and  _42
REMARK   20  A    between atoms: _47  and  _48
REMARK   21  A    between atoms: _50  and  _52
REMARK   22  A    between atoms: _52  and  _53
REMARK   23  A    between atoms: _52  and  _55
REMARK   24  A    between atoms: _55  and  _56
REMARK   25  A    between atoms: _61  and  _63
REMARK   26  A    between atoms: _63  and  _64
REMARK   27  A    between atoms: _66  and  _68
REMARK   28  A    between atoms: _68  and  _69
REMARK   29  A    between atoms: _68  and  _71
REMARK   30  A    between atoms: _71  and  _72
REMARK   31  A    between atoms: _77  and  _78
REMARK   32  A    between atoms: _81  and  _82
REMARK   33  A    between atoms: _87  and  _89
REMARK   34  A    between atoms: _89  and  _90
REMARK   35  A    between atoms: _89  and  _92
REMARK   36  A    between atoms: _92  and  _93
REMARK   37  A    between atoms: _93  and  _94
REMARK   38  A    between atoms: _94  and  _95
REMARK   39  A    between atoms: _95  and  _96
REMARK   40  A    between atoms: _100  and  _102
REMARK   41  A    between atoms: _102  and  _103
REMARK   42  A    between atoms: _102  and  _105
REMARK   43  A    between atoms: _105  and  _106
REMARK   44  A    between atoms: _108  and  _110
REMARK   45  A    between atoms: _110  and  _111
REMARK   46  A    between atoms: _110  and  _113
REMARK   47  A    between atoms: _116  and  _118
REMARK   48  A    between atoms: _118  and  _119
REMARK   49  A    between atoms: _118  and  _121
REMARK   50  A    between atoms: _123  and  _125
REMARK   51  A    between atoms: _125  and  _126
REMARK   52  A    between atoms: _125  and  _128
REMARK   53  A    between atoms: _130  and  _132
REMARK   54  A    between atoms: _132  and  _133
REMARK   55  A    between atoms: _132  and  _135
REMARK   56  A    between atoms: _135  and  _136
REMARK   57  A    between atoms: _140  and  CO_321
REMARK   58  A    between atoms: _141  and  _143
REMARK   59  A    between atoms: _143  and  _144
REMARK   60  A    between atoms: _146  and  _148
REMARK   61  A    between atoms: _148  and  _149
REMARK   62  A    between atoms: _148  and  _151
REMARK   63  A    between atoms: _151  and  _152
REMARK   64  A    between atoms: _152  and  _153
REMARK   65  A    between atoms: _153  and  CO_322
REMARK   66  A    between atoms: _155  and  _157
REMARK   67  A    between atoms: _157  and  _158
REMARK   68  A    between atoms: _157  and  _160
REMARK   69  A    between atoms: _160  and  _161
REMARK   70  A    between atoms: _164  and  _166
REMARK   71  A    between atoms: _166  and  _167
REMARK   72  A    between atoms: _166  and  _169
REMARK   73  A    between atoms: _173  and  _175
REMARK   74  A    between atoms: _175  and  _176
REMARK   75  A    between atoms: _175  and  _178
REMARK   76  A    between atoms: _178  and  _179
REMARK   77  A    between atoms: _179  and  _180
REMARK   78  A    between atoms: _183  and  _185
REMARK   79  A    between atoms: _185  and  _186
REMARK   80  A    between atoms: _185  and  _188
REMARK   81  A    between atoms: _188  and  _189
REMARK   82  A    between atoms: _194  and  _195
REMARK   83  A    between atoms: _197  and  _199
REMARK   84  A    between atoms: _199  and  _200
REMARK   85  A    between atoms: _199  and  _202
REMARK   86  A    between atoms: _204  and  _206
REMARK   87  A    between atoms: _206  and  _207
REMARK   88  A    between atoms: _209  and  _211
REMARK   89  A    between atoms: _211  and  _212
REMARK   90  A    between atoms: _211  and  _214
REMARK   91  A    between atoms: _214  and  _215
REMARK   92  A    between atoms: _219  and  CO_323
REMARK   93  A    between atoms: _220  and  _222
REMARK   94  A    between atoms: _222  and  _223
REMARK   95  A    between atoms: _222  and  _225
REMARK   96  A    between atoms: _225  and  _226
REMARK   97  A    between atoms: _232  and  _234
REMARK   98  A    between atoms: _234  and  _235
REMARK   99  A    between atoms: _234  and  _237
REMARK  100  A    between atoms: _237  and  _238
REMARK  101  A    between atoms: _243  and  _245
REMARK  102  A    between atoms: _245  and  _246
REMARK  103  A    between atoms: _245  and  _248
REMARK  104  A    between atoms: _248  and  _249
REMARK  105  A    between atoms: _249  and  _250
REMARK  106  A    between atoms: _255  and  _257
REMARK  107  A    between atoms: _257  and  _258
REMARK  108  A    between atoms: _257  and  _260
REMARK  109  A    between atoms: _260  and  _261
REMARK  110  A    between atoms: _264  and  _266
REMARK  111  A    between atoms: _266  and  _267
REMARK  112  A    between atoms: _266  and  _269
REMARK  113  A    between atoms: _269  and  _270
REMARK  114  A    between atoms: _270  and  _271
REMARK  115  A    between atoms: _271  and  _273
REMARK  116  A    between atoms: _273  and  CO_323
REMARK  117  A    between atoms: _274  and  _276
REMARK  118  A    between atoms: _276  and  _277
REMARK  119  A    between atoms: _276  and  _279
REMARK  120  A    between atoms: _279  and  _280
REMARK  121  A    between atoms: _280  and  _281
REMARK  122  A    between atoms: _283  and  _285
REMARK  123  A    between atoms: _285  and  _286
REMARK  124  A    between atoms: _285  and  _288
REMARK  125  A    between atoms: _288  and  _289
REMARK  126  A    between atoms: _299  and  _301
REMARK  127  A    between atoms: _301  and  _302
REMARK  128  A    between atoms: _301  and  _304
REMARK  129  A    between atoms: _305  and  _306
REMARK  130  A    between atoms: _311  and  _313
REMARK  131  A    between atoms: _313  and  _314
REMARK  132  A    between atoms: _313  and  _316
REMARK  133  A    between atoms: _316  and  _317
REMARK  134  A    between atoms: _317  and  _318
REMARK                            x       y       z     vdW  Elec       q    Type
REMARK                         _______ _______ _______ _____ _____    ______ ____
ROOT
ATOM      1  C   HIS A   7      32.770 -14.720   6.036  0.00  0.00    +0.241 C 
ATOM      2  N   GLY A   8      33.128 -15.830   6.687  0.00  0.00    -0.295 N 
ATOM      3  H   GLY A   8      32.756 -16.745   6.361  0.00  0.00    +0.150 HD
ATOM      4  O   HIS A   7      33.138 -13.616   6.398  0.00  0.00    -0.273 OA
ENDROOT
BRANCH   2   5
ATOM      5  CA  GLY A   8      34.009 -15.806   7.822  0.00  0.00    +0.176 C 
BRANCH   5   6
ATOM      6  C   GLY A   8      33.329 -15.588   9.160  0.00  0.00    +0.243 C 
ATOM      7  O   GLY A   8      34.032 -15.466  10.158  0.00  0.00    -0.273 OA
ATOM      8  N   TYR A   9      32.016 -15.556   9.184  0.00  0.00    -0.297 N 
ATOM      9  H   TYR A   9      31.463 -15.625   8.306  0.00  0.00    +0.150 HD
BRANCH   8  10
ATOM     10  CA  TYR A   9      31.353 -15.420  10.487  0.00  0.00    +0.153 C 
BRANCH  10  11
ATOM     11  C   TYR A   9      31.780 -16.550  11.410  0.00  0.00    +0.244 C 
ATOM     12  N   PRO A  10      32.152 -16.251  12.656  0.00  0.00    -0.272 N 
ATOM     13  CA  PRO A  10      32.764 -17.247  13.531  0.00  0.00    +0.152 C 
ATOM     14  CB  PRO A  10      33.604 -16.314  14.439  0.00  0.00    +0.031 C 
ATOM     15  CG  PRO A  10      32.752 -15.099  14.617  0.00  0.00    +0.024 C 
ATOM     16  CD  PRO A  10      32.083 -14.911  13.279  0.00  0.00    +0.094 C 
ATOM     17  O   TYR A   9      31.830 -17.739  11.075  0.00  0.00    -0.273 OA
BRANCH  13  18
ATOM     18  C   PRO A  10      31.862 -18.095  14.417  0.00  0.00    +0.241 C 
ATOM     19  O   PRO A  10      32.355 -19.035  15.066  0.00  0.00    -0.273 OA
ATOM     20  N   LYS A  11      30.575 -17.761  14.462  0.00  0.00    -0.297 N 
ATOM     21  H   LYS A  11      30.213 -16.995  13.859  0.00  0.00    +0.150 HD
BRANCH  20  22
ATOM     22  CA  LYS A  11      29.670 -18.476  15.364  0.00  0.00    +0.149 C 
BRANCH  22  23
ATOM     23  C   LYS A  11      28.522 -19.111  14.601  0.00  0.00    +0.241 C 
ATOM     24  N   SER A  12      27.550 -19.717  15.295  0.00  0.00    -0.295 N 
ATOM     25  H   SER A  12      27.515 -19.628  16.331  0.00  0.00    +0.150 HD
ATOM     26  O   LYS A  11      28.502 -19.028  13.365  0.00  0.00    -0.273 OA
BRANCH  24  27
ATOM     27  CA  SER A  12      26.543 -20.500  14.594  0.00  0.00    +0.178 C 
BRANCH  27  28
ATOM     28  C   SER A  12      25.157 -19.870  14.478  0.00  0.00    +0.243 C 
ATOM     29  N   VAL A  13      24.839 -18.926  15.337  0.00  0.00    -0.297 N 
ATOM     30  H   VAL A  13      25.479 -18.737  16.134  0.00  0.00    +0.150 HD
ATOM     31  O   SER A  12      24.414 -20.284  13.570  0.00  0.00    -0.273 OA
BRANCH  29  32
ATOM     32  CA  VAL A  13      23.625 -18.139  15.211  0.00  0.00    +0.149 C 
BRANCH  32  33
ATOM     33  C   VAL A  13      23.998 -16.667  15.437  0.00  0.00    +0.241 C 
ATOM     34  O   VAL A  13      25.131 -16.403  15.875  0.00  0.00    -0.273 OA
ATOM     35  N   CYS A  14      23.142 -15.724  15.156  0.00  0.00    -0.297 N 
ATOM     36  H   CYS A  14      22.307 -16.011  14.607  0.00  0.00    +0.150 HD
BRANCH  35  37
ATOM     37  CA  CYS A  14      23.218 -14.321  15.520  0.00  0.00    +0.149 C 
BRANCH  37  38
ATOM     38  CB  CYS A  14      22.839 -13.413  14.355  0.00  0.00    +0.096 C 
ATOM     39  SG  CYS A  14      23.889 -13.610  12.874  0.00  0.00    -0.080 S 
ENDBRANCH  37  38
BRANCH  37  40
ATOM     40  C   CYS A  14      22.295 -13.983  16.690  0.00  0.00    +0.228 C 
ATOM     41  O   CYS A  14      21.104 -14.334  16.624  0.00  0.00    -0.286 OA
ENDBRANCH  37  40
ENDBRANCH  35  37
ENDBRANCH  32  33
BRANCH  32  42
ATOM     42  CB  VAL A  13      22.543 -18.614  16.200  0.00  0.00    +0.027 C 
ATOM     43  CG2 VAL A  13      22.990 -18.306  17.616  0.00  0.00    +0.002 C 
ATOM     44  CG1 VAL A  13      22.244 -20.102  16.023  0.00  0.00    +0.002 C 
ENDBRANCH  32  42
ENDBRANCH  29  32
ENDBRANCH  27  28
BRANCH  27  45
ATOM     45  CB  SER A  12      26.425 -21.892  15.248  0.00  0.00    +0.166 C 
BRANCH  45  46
ATOM     46  OG  SER A  12      25.048 -22.321  15.260  0.00  0.00    -0.380 OA
ATOM     47  H   SER A  12      24.710 -22.369  14.331  0.00  0.00    +0.211 HD
ENDBRANCH  45  46
ENDBRANCH  27  45
ENDBRANCH  24  27
ENDBRANCH  22  23
BRANCH  22  48
ATOM     48  CB  LYS A  11      29.137 -17.483  16.395  0.00  0.00    +0.029 C 
BRANCH  48  49
ATOM     49  CG  LYS A  11      30.206 -16.982  17.353  0.00  0.00    +0.000 C 
BRANCH  49  50
ATOM     50  CD  LYS A  11      30.558 -17.980  18.423  0.00  0.00    -0.024 C 
BRANCH  50  51
ATOM     51  CE  LYS A  11      31.579 -17.388  19.388  0.00  0.00    -0.086 C 
BRANCH  51  52
ATOM     52  NZ  LYS A  11      32.096 -18.452  20.292  0.00  0.00    +0.380 N 
ATOM     53  HZ1 LYS A  11      32.791 -18.041  20.947  0.00  0.00    -0.089 HD
ATOM     54  HZ2 LYS A  11      31.307 -18.859  20.833  0.00  0.00    -0.089 HD
ATOM     55  HZ3 LYS A  11      32.550 -19.197  19.725  0.00  0.00    -0.089 HD
ENDBRANCH  51  52
ENDBRANCH  50  51
ENDBRANCH  49  50
ENDBRANCH  48  49
ENDBRANCH  22  48
ENDBRANCH  20  22
ENDBRANCH  13  18
ENDBRANCH  10  11
BRANCH  10  56
ATOM     56  CB  TYR A   9      29.844 -15.369  10.256  0.00  0.00    +0.055 C 
BRANCH  56  57
ATOM     57  CG  TYR A   9      29.042 -15.071  11.491  0.00  0.00    -0.020 A 
ATOM     58  CD2 TYR A   9      28.397 -16.112  12.144  0.00  0.00    -0.001 A 
ATOM     59  CE2 TYR A   9      27.655 -15.862  13.293  0.00  0.00    +0.036 A 
ATOM     60  CZ  TYR A   9      27.547 -14.578  13.776  0.00  0.00    +0.134 A 
ATOM     61  CE1 TYR A   9      28.177 -13.536  13.130  0.00  0.00    +0.036 A 
ATOM     62  CD1 TYR A   9      28.925 -13.789  11.987  0.00  0.00    -0.001 A 
BRANCH  60  63
ATOM     63  OH  TYR A   9      26.798 -14.352  14.923  0.00  0.00    -0.506 OA
ATOM     64  HH  TYR A   9      25.863 -14.639  14.767  0.00  0.00    +0.292 HD
ENDBRANCH  60  63
ENDBRANCH  56  57
ENDBRANCH  10  56
ENDBRANCH   8  10
ENDBRANCH   5   6
ENDBRANCH   2   5
BRANCH   1  65
ATOM     65  CA  HIS A   7      31.867 -14.898   4.805  0.00  0.00    +0.155 C 
BRANCH  65  68
ATOM     66  C   TYR A   6      30.350 -16.512   5.843  0.00  0.00    +0.241 C 
ATOM     67  O   TYR A   6      30.164 -15.665   6.729  0.00  0.00    -0.273 OA
ATOM     68  N   HIS A   7      31.155 -16.165   4.846  0.00  0.00    -0.297 N 
ATOM     69  H   HIS A   7      31.282 -16.831   4.057  0.00  0.00    +0.150 HD
BRANCH  66  70
ATOM     70  CA  TYR A   6      29.783 -17.907   5.880  0.00  0.00    +0.153 C 
BRANCH  70  72
ATOM     71  C   GLY A   5      31.628 -19.008   7.089  0.00  0.00    +0.243 C 
ATOM     72  N   TYR A   6      30.345 -18.654   7.026  0.00  0.00    -0.297 N 
ATOM     73  H   TYR A   6      29.715 -18.913   7.812  0.00  0.00    +0.150 HD
ATOM     74  O   GLY A   5      32.466 -18.661   6.253  0.00  0.00    -0.273 OA
BRANCH  71  75
ATOM     75  CA  GLY A   5      32.050 -19.881   8.246  0.00  0.00    +0.176 C 
BRANCH  75  77
ATOM     76  C   LEU A   4      30.148 -20.805   9.434  0.00  0.00    +0.241 C 
ATOM     77  N   GLY A   5      31.118 -19.917   9.366  0.00  0.00    -0.295 N 
ATOM     78  H   GLY A   5      31.222 -19.222  10.133  0.00  0.00    +0.150 HD
ATOM     79  O   LEU A   4      29.998 -21.649   8.539  0.00  0.00    -0.273 OA
BRANCH  76  80
ATOM     80  CA  LEU A   4      29.241 -20.757  10.648  0.00  0.00    +0.149 C 
BRANCH  80  82
ATOM     81  C   CYS A   3      27.584 -19.242   9.722  0.00  0.00    +0.242 C 
ATOM     82  N   LEU A   4      27.863 -20.428  10.250  0.00  0.00    -0.297 N 
ATOM     83  H   LEU A   4      27.105 -21.127  10.383  0.00  0.00    +0.150 HD
ATOM     84  O   CYS A   3      28.417 -18.401   9.374  0.00  0.00    -0.273 OA
BRANCH  81  85
ATOM     85  CA  CYS A   3      26.099 -18.945   9.556  0.00  0.00    +0.160 C 
BRANCH  85  87
ATOM     86  C   ALA A   2      25.385 -20.578   7.861  0.00  0.00    +0.241 C 
ATOM     87  N   CYS A   3      25.309 -20.064   9.079  0.00  0.00    -0.296 N 
ATOM     88  H   CYS A   3      24.633 -20.494   9.742  0.00  0.00    +0.150 HD
ATOM     89  O   ALA A   2      26.083 -20.077   6.971  0.00  0.00    -0.273 OA
BRANCH  86  90
ATOM     90  CA  ALA A   2      24.534 -21.793   7.547  0.00  0.00    +0.149 C 
ATOM     91  CB  ALA A   2      23.263 -21.292   6.804  0.00  0.00    +0.031 C 
BRANCH  90  94
ATOM     92  C   SER A   1      25.017 -23.270   9.413  0.00  0.00    +0.241 C 
ATOM     93  O   SER A   1      26.177 -23.379   9.002  0.00  0.00    -0.274 OA
ATOM     94  N   ALA A   2      24.122 -22.561   8.707  0.00  0.00    -0.297 N 
ATOM     95  H   ALA A   2      23.123 -22.562   8.995  0.00  0.00    +0.150 HD
BRANCH  92  96
ATOM     96  CA  SER A   1      24.528 -23.924  10.687  0.00  0.00    +0.174 C 
BRANCH  96  97
ATOM     97  N   SER A   1      24.823 -25.341  10.698  0.00  0.00    -0.236 NA
ATOM     98  H   SER A   1      25.614 -25.692  11.274  0.00  0.00    +0.142 HD
ENDBRANCH  96  97
BRANCH  96  99
ATOM     99  CB  SER A   1      25.155 -23.188  11.879  0.00  0.00    +0.163 C 
BRANCH  99 100
ATOM    100  OG  SER A   1      25.192 -21.807  11.507  0.00  0.00    -0.380 OA
ATOM    101  H   SER A   1      25.590 -21.279  12.244  0.00  0.00    +0.211 HD
ENDBRANCH  99 100
ENDBRANCH  96  99
ENDBRANCH  92  96
ENDBRANCH  90  94
ENDBRANCH  86  90
ENDBRANCH  85  87
BRANCH  85 102
ATOM    102  CB  CYS A   3      25.553 -18.497  10.927  0.00  0.00    +0.098 C 
ATOM    103  SG  CYS A   3      23.835 -17.944  10.742  0.00  0.00    -0.080 S 
ENDBRANCH  85 102
ENDBRANCH  81  85
ENDBRANCH  80  82
BRANCH  80 104
ATOM    104  CB  LEU A   4      29.211 -22.055  11.458  0.00  0.00    +0.029 C 
BRANCH 104 105
ATOM    105  CG  LEU A   4      30.547 -22.469  12.089  0.00  0.00    +0.002 C 
ATOM    106  CD2 LEU A   4      31.129 -21.348  12.943  0.00  0.00    +0.000 C 
ATOM    107  CD1 LEU A   4      30.365 -23.760  12.884  0.00  0.00    +0.000 C 
ENDBRANCH 104 105
ENDBRANCH  80 104
ENDBRANCH  76  80
ENDBRANCH  75  77
ENDBRANCH  71  75
ENDBRANCH  70  72
BRANCH  70 108
ATOM    108  CB  TYR A   6      28.267 -17.962   6.013  0.00  0.00    +0.055 C 
BRANCH 108 109
ATOM    109  CG  TYR A   6      27.392 -17.369   4.937  0.00  0.00    -0.020 A 
ATOM    110  CD2 TYR A   6      26.903 -16.092   5.064  0.00  0.00    -0.001 A 
ATOM    111  CE2 TYR A   6      26.097 -15.453   4.151  0.00  0.00    +0.036 A 
ATOM    112  CZ  TYR A   6      25.770 -16.158   3.026  0.00  0.00    +0.134 A 
ATOM    113  CE1 TYR A   6      26.228 -17.447   2.839  0.00  0.00    +0.036 A 
ATOM    114  CD1 TYR A   6      27.038 -18.054   3.787  0.00  0.00    -0.001 A 
BRANCH 112 115
ATOM    115  OH  TYR A   6      24.961 -15.591   2.057  0.00  0.00    -0.506 OA
ATOM    116  HH  TYR A   6      24.085 -15.359   2.455  0.00  0.00    +0.292 HD
ENDBRANCH 112 115
ENDBRANCH 108 109
ENDBRANCH  70 108
ENDBRANCH  66  70
ENDBRANCH  65  68
BRANCH  65 117
ATOM    117  CB  HIS A   7      30.915 -13.691   4.702  0.00  0.00    +0.076 C 
BRANCH 117 118
ATOM    118  CG  HIS A   7      30.164 -13.704   3.403  0.00  0.00    +0.082 A 
ATOM    119  CD2 HIS A   7      28.972 -14.248   3.100  0.00  0.00    +0.115 A 
ATOM    120  NE2 HIS A   7      28.714 -14.006   1.772  0.00  0.00    -0.221 NA
ATOM    121  CE1 HIS A   7      29.728 -13.334   1.281  0.00  0.00    +0.199 A 
ATOM    122  ND1 HIS A   7      30.624 -13.140   2.243  0.00  0.00    -0.227 NA
ENDBRANCH 117 118
ENDBRANCH  65 117
ENDBRANCH   1  65
TORSDOF 49
REMARK  Name = ../refined-set-2016/1yvm/1yvm_pocket.pdb
REMARK  134 active torsions:
REMARK  status: ('A' for Active; 'I' for Inactive)
REMARK    1  A    between atoms: _1  and  _3
REMARK    2  A    between atoms: _3  and  _4
REMARK    3  A    between atoms: _3  and  _6
REMARK    4  A    between atoms: _6  and  _7
REMARK    5  A    between atoms: _9  and  _11
REMARK    6  A    between atoms: _11  and  _12
REMARK    7  A    between atoms: _15  and  _17
REMARK    8  A    between atoms: _17  and  _18
REMARK    9  A    between atoms: _17  and  _20
REMARK   10  A    between atoms: _22  and  _24
REMARK   11  A    between atoms: _24  and  _25
REMARK   12  A    between atoms: _24  and  _27
REMARK   13  A    between atoms: _27  and  _28
REMARK   14  A    between atoms: _31  and  _33
REMARK   15  A    between atoms: _33  and  _34
REMARK   16  A    between atoms: _36  and  _38
REMARK   17  A    between atoms: _38  and  _39
REMARK   18  A    between atoms: _38  and  _41
REMARK   19  A    between atoms: _41  and  _42
REMARK   20  A    between atoms: _47  and  _48
REMARK   21  A    between atoms: _50  and  _52
REMARK   22  A    between atoms: _52  and  _53
REMARK   23  A    between atoms: _52  and  _55
REMARK   24  A    between atoms: _55  and  _56
REMARK   25  A    between atoms: _61  and  _63
REMARK   26  A    between atoms: _63  and  _64
REMARK   27  A    between atoms: _66  and  _68
REMARK   28  A    between atoms: _68  and  _69
REMARK   29  A    between atoms: _68  and  _71
REMARK   30  A    between atoms: _71  and  _72
REMARK   31  A    between atoms: _77  and  _78
REMARK   32  A    between atoms: _81  and  _82
REMARK   33  A    between atoms: _87  and  _89
REMARK   34  A    between atoms: _89  and  _90
REMARK   35  A    between atoms: _89  and  _92
REMARK   36  A    between atoms: _92  and  _93
REMARK   37  A    between atoms: _93  and  _94
REMARK   38  A    between atoms: _94  and  _95
REMARK   39  A    between atoms: _95  and  _96
REMARK   40  A    between atoms: _100  and  _102
REMARK   41  A    between atoms: _102  and  _103
REMARK   42  A    between atoms: _102  and  _105
REMARK   43  A    between atoms: _105  and  _106
REMARK   44  A    between atoms: _108  and  _110
REMARK   45  A    between atoms: _110  and  _111
REMARK   46  A    between atoms: _110  and  _113
REMARK   47  A    between atoms: _116  and  _118
REMARK   48  A    between atoms: _118  and  _119
REMARK   49  A    between atoms: _118  and  _121
REMARK   50  A    between atoms: _123  and  _125
REMARK   51  A    between atoms: _125  and  _126
REMARK   52  A    between atoms: _125  and  _128
REMARK   53  A    between atoms: _130  and  _132
REMARK   54  A    between atoms: _132  and  _133
REMARK   55  A    between atoms: _132  and  _135
REMARK   56  A    between atoms: _135  and  _136
REMARK   57  A    between atoms: _140  and  CO_321
REMARK   58  A    between atoms: _141  and  _143
REMARK   59  A    between atoms: _143  and  _144
REMARK   60  A    between atoms: _146  and  _148
REMARK   61  A    between atoms: _148  and  _149
REMARK   62  A    between atoms: _148  and  _151
REMARK   63  A    between atoms: _151  and  _152
REMARK   64  A    between atoms: _152  and  _153
REMARK   65  A    between atoms: _153  and  CO_322
REMARK   66  A    between atoms: _155  and  _157
REMARK   67  A    between atoms: _157  and  _158
REMARK   68  A    between atoms: _157  and  _160
REMARK   69  A    between atoms: _160  and  _161
REMARK   70  A    between atoms: _164  and  _166
REMARK   71  A    between atoms: _166  and  _167
REMARK   72  A    between atoms: _166  and  _169
REMARK   73  A    between atoms: _173  and  _175
REMARK   74  A    between atoms: _175  and  _176
REMARK   75  A    between atoms: _175  and  _178
REMARK   76  A    between atoms: _178  and  _179
REMARK   77  A    between atoms: _179  and  _180
REMARK   78  A    between atoms: _183  and  _185
REMARK   79  A    between atoms: _185  and  _186
REMARK   80  A    between atoms: _185  and  _188
REMARK   81  A    between atoms: _188  and  _189
REMARK   82  A    between atoms: _194  and  _195
REMARK   83  A    between atoms: _197  and  _199
REMARK   84  A    between atoms: _199  and  _200
REMARK   85  A    between atoms: _199  and  _202
REMARK   86  A    between atoms: _204  and  _206
REMARK   87  A    between atoms: _206  and  _207
REMARK   88  A    between atoms: _209  and  _211
REMARK   89  A    between atoms: _211  and  _212
REMARK   90  A    between atoms: _211  and  _214
REMARK   91  A    between atoms: _214  and  _215
REMARK   92  A    between atoms: _219  and  CO_323
REMARK   93  A    between atoms: _220  and  _222
REMARK   94  A    between atoms: _222  and  _223
REMARK   95  A    between atoms: _222  and  _225
REMARK   96  A    between atoms: _225  and  _226
REMARK   97  A    between atoms: _232  and  _234
REMARK   98  A    between atoms: _234  and  _235
REMARK   99  A    between atoms: _234  and  _237
REMARK  100  A    between atoms: _237  and  _238
REMARK  101  A    between atoms: _243  and  _245
REMARK  102  A    between atoms: _245  and  _246
REMARK  103  A    between atoms: _245  and  _248
REMARK  104  A    between atoms: _248  and  _249
REMARK  105  A    between atoms: _249  and  _250
REMARK  106  A    between atoms: _255  and  _257
REMARK  107  A    between atoms: _257  and  _258
REMARK  108  A    between atoms: _257  and  _260
REMARK  109  A    between atoms: _260  and  _261
REMARK  110  A    between atoms: _264  and  _266
REMARK  111  A    between atoms: _266  and  _267
REMARK  112  A    between atoms: _266  and  _269
REMARK  113  A    between atoms: _269  and  _270
REMARK  114  A    between atoms: _270  and  _271
REMARK  115  A    between atoms: _271  and  _273
REMARK  116  A    between atoms: _273  and  CO_323
REMARK  117  A    between atoms: _274  and  _276
REMARK  118  A    between atoms: _276  and  _277
REMARK  119  A    between atoms: _276  and  _279
REMARK  120  A    between atoms: _279  and  _280
REMARK  121  A    between atoms: _280  and  _281
REMARK  122  A    between atoms: _283  and  _285
REMARK  123  A    between atoms: _285  and  _286
REMARK  124  A    between atoms: _285  and  _288
REMARK  125  A    between atoms: _288  and  _289
REMARK  126  A    between atoms: _299  and  _301
REMARK  127  A    between atoms: _301  and  _302
REMARK  128  A    between atoms: _301  and  _304
REMARK  129  A    between atoms: _305  and  _306
REMARK  130  A    between atoms: _311  and  _313
REMARK  131  A    between atoms: _313  and  _314
REMARK  132  A    between atoms: _313  and  _316
REMARK  133  A    between atoms: _316  and  _317
REMARK  134  A    between atoms: _317  and  _318
REMARK                            x       y       z     vdW  Elec       q    Type
REMARK                         _______ _______ _______ _____ _____    ______ ____
ROOT
ATOM      1  C   UNK A   2      24.023  -9.617  13.522  0.00  0.00    +0.000 C 
ENDROOT
BRANCH   1   4
ATOM      2  C   CYS A   1      22.456  -7.761  13.974  0.00  0.00    +0.000 C 
ATOM      3  O   CYS A   1      23.304  -6.894  14.164  0.00  0.00    +0.000 OA
ATOM      4  N   UNK A   2      22.716  -9.034  13.733  0.00  0.00    +0.000 N 
ATOM      5  H   UNK A   2      21.902  -9.680  13.691  0.00  0.00    +0.000 HD
BRANCH   2   6
ATOM      6  CA  CYS A   1      20.966  -7.379  14.009  0.00  0.00    +0.000 C 
BRANCH   6   7
ATOM      7  N   CYS A   1      20.696  -6.100  14.624  0.00  0.00    +0.000 NA
ATOM      8  H   CYS A   1      21.500  -5.477  14.840  0.00  0.00    +0.000 HD
ENDBRANCH   6   7
BRANCH   6   9
ATOM      9  CB  CYS A   1      20.448  -7.402  12.571  0.00  0.00    +0.000 C 
ATOM     10  SG  CYS A   1      21.249  -6.277  11.377  0.00  0.00    +0.000 S 
ENDBRANCH   6   9
ENDBRANCH   2   6
ENDBRANCH   1   4
BRANCH   1  11
ATOM     11  C   UNK A   2      24.904  -9.519  14.758  0.00  0.00    +0.000 C 
ATOM     12  N   GLY A   3      24.278  -9.384  15.930  0.00  0.00    +0.000 N 
ATOM     13  H   GLY A   3      23.263  -9.160  15.954  0.00  0.00    +0.000 HD
ATOM     14  O   UNK A   2      26.129  -9.584  14.638  0.00  0.00    +0.000 OA
BRANCH  12  15
ATOM     15  CA  GLY A   3      25.013  -9.550  17.168  0.00  0.00    +0.000 C 
BRANCH  15  16
ATOM     16  C   GLY A   3      25.801 -10.834  17.215  0.00  0.00    +0.000 C 
ATOM     17  O   GLY A   3      25.318 -11.914  16.862  0.00  0.00    +0.000 OA
ENDBRANCH  15  16
ENDBRANCH  12  15
ENDBRANCH   1  11
BRANCH   1  18
ATOM     18  C   UNK A   2      24.717  -8.916  12.338  0.00  0.00    +0.000 C 
BRANCH  18  19
ATOM     19  C   UNK A   2      24.039  -9.245  11.040  0.00  0.00    +0.000 A 
ATOM     20  C   UNK A   2      23.140 -10.181  10.676  0.00  0.00    +0.000 A 
ATOM     21  N   UNK A   2      22.864 -10.020   9.345  0.00  0.00    +0.000 N 
ATOM     22  C   UNK A   2      23.577  -9.002   8.889  0.00  0.00    +0.000 A 
ATOM     23  N   UNK A   2      24.301  -8.509   9.890  0.00  0.00    +0.000 NA
BRANCH  21  24
ATOM     24 CO   UNK A   2      21.661 -11.711   8.448  0.00  0.00    +0.000 Co
ATOM     25  O   UNK A   2      21.265 -12.677  10.177  0.00  0.00    +0.000 OA
ATOM     26  O   UNK A   2      19.943 -10.316   8.932  0.00  0.00    +0.000 OA
ATOM     27  O   UNK A   2      20.435 -13.389   7.416  0.00  0.00    +0.000 OA
ENDBRANCH  21  24
ENDBRANCH  18  19
ENDBRANCH   1  18
TORSDOF 10
REMARK  Name = ../refined-set-2016/1yvm/1yvm_pocket.pdb
REMARK  134 active torsions:
REMARK  status: ('A' for Active; 'I' for Inactive)
REMARK    1  A    between atoms: _1  and  _3
REMARK    2  A    between atoms: _3  and  _4
REMARK    3  A    between atoms: _3  and  _6
REMARK    4  A    between atoms: _6  and  _7
REMARK    5  A    between atoms: _9  and  _11
REMARK    6  A    between atoms: _11  and  _12
REMARK    7  A    between atoms: _15  and  _17
REMARK    8  A    between atoms: _17  and  _18
REMARK    9  A    between atoms: _17  and  _20
REMARK   10  A    between atoms: _22  and  _24
REMARK   11  A    between atoms: _24  and  _25
REMARK   12  A    between atoms: _24  and  _27
REMARK   13  A    between atoms: _27  and  _28
REMARK   14  A    between atoms: _31  and  _33
REMARK   15  A    between atoms: _33  and  _34
REMARK   16  A    between atoms: _36  and  _38
REMARK   17  A    between atoms: _38  and  _39
REMARK   18  A    between atoms: _38  and  _41
REMARK   19  A    between atoms: _41  and  _42
REMARK   20  A    between atoms: _47  and  _48
REMARK   21  A    between atoms: _50  and  _52
REMARK   22  A    between atoms: _52  and  _53
REMARK   23  A    between atoms: _52  and  _55
REMARK   24  A    between atoms: _55  and  _56
REMARK   25  A    between atoms: _61  and  _63
REMARK   26  A    between atoms: _63  and  _64
REMARK   27  A    between atoms: _66  and  _68
REMARK   28  A    between atoms: _68  and  _69
REMARK   29  A    between atoms: _68  and  _71
REMARK   30  A    between atoms: _71  and  _72
REMARK   31  A    between atoms: _77  and  _78
REMARK   32  A    between atoms: _81  and  _82
REMARK   33  A    between atoms: _87  and  _89
REMARK   34  A    between atoms: _89  and  _90
REMARK   35  A    between atoms: _89  and  _92
REMARK   36  A    between atoms: _92  and  _93
REMARK   37  A    between atoms: _93  and  _94
REMARK   38  A    between atoms: _94  and  _95
REMARK   39  A    between atoms: _95  and  _96
REMARK   40  A    between atoms: _100  and  _102
REMARK   41  A    between atoms: _102  and  _103
REMARK   42  A    between atoms: _102  and  _105
REMARK   43  A    between atoms: _105  and  _106
REMARK   44  A    between atoms: _108  and  _110
REMARK   45  A    between atoms: _110  and  _111
REMARK   46  A    between atoms: _110  and  _113
REMARK   47  A    between atoms: _116  and  _118
REMARK   48  A    between atoms: _118  and  _119
REMARK   49  A    between atoms: _118  and  _121
REMARK   50  A    between atoms: _123  and  _125
REMARK   51  A    between atoms: _125  and  _126
REMARK   52  A    between atoms: _125  and  _128
REMARK   53  A    between atoms: _130  and  _132
REMARK   54  A    between atoms: _132  and  _133
REMARK   55  A    between atoms: _132  and  _135
REMARK   56  A    between atoms: _135  and  _136
REMARK   57  A    between atoms: _140  and  CO_321
REMARK   58  A    between atoms: _141  and  _143
REMARK   59  A    between atoms: _143  and  _144
REMARK   60  A    between atoms: _146  and  _148
REMARK   61  A    between atoms: _148  and  _149
REMARK   62  A    between atoms: _148  and  _151
REMARK   63  A    between atoms: _151  and  _152
REMARK   64  A    between atoms: _152  and  _153
REMARK   65  A    between atoms: _153  and  CO_322
REMARK   66  A    between atoms: _155  and  _157
REMARK   67  A    between atoms: _157  and  _158
REMARK   68  A    between atoms: _157  and  _160
REMARK   69  A    between atoms: _160  and  _161
REMARK   70  A    between atoms: _164  and  _166
REMARK   71  A    between atoms: _166  and  _167
REMARK   72  A    between atoms: _166  and  _169
REMARK   73  A    between atoms: _173  and  _175
REMARK   74  A    between atoms: _175  and  _176
REMARK   75  A    between atoms: _175  and  _178
REMARK   76  A    between atoms: _178  and  _179
REMARK   77  A    between atoms: _179  and  _180
REMARK   78  A    between atoms: _183  and  _185
REMARK   79  A    between atoms: _185  and  _186
REMARK   80  A    between atoms: _185  and  _188
REMARK   81  A    between atoms: _188  and  _189
REMARK   82  A    between atoms: _194  and  _195
REMARK   83  A    between atoms: _197  and  _199
REMARK   84  A    between atoms: _199  and  _200
REMARK   85  A    between atoms: _199  and  _202
REMARK   86  A    between atoms: _204  and  _206
REMARK   87  A    between atoms: _206  and  _207
REMARK   88  A    between atoms: _209  and  _211
REMARK   89  A    between atoms: _211  and  _212
REMARK   90  A    between atoms: _211  and  _214
REMARK   91  A    between atoms: _214  and  _215
REMARK   92  A    between atoms: _219  and  CO_323
REMARK   93  A    between atoms: _220  and  _222
REMARK   94  A    between atoms: _222  and  _223
REMARK   95  A    between atoms: _222  and  _225
REMARK   96  A    between atoms: _225  and  _226
REMARK   97  A    between atoms: _232  and  _234
REMARK   98  A    between atoms: _234  and  _235
REMARK   99  A    between atoms: _234  and  _237
REMARK  100  A    between atoms: _237  and  _238
REMARK  101  A    between atoms: _243  and  _245
REMARK  102  A    between atoms: _245  and  _246
REMARK  103  A    between atoms: _245  and  _248
REMARK  104  A    between atoms: _248  and  _249
REMARK  105  A    between atoms: _249  and  _250
REMARK  106  A    between atoms: _255  and  _257
REMARK  107  A    between atoms: _257  and  _258
REMARK  108  A    between atoms: _257  and  _260
REMARK  109  A    between atoms: _260  and  _261
REMARK  110  A    between atoms: _264  and  _266
REMARK  111  A    between atoms: _266  and  _267
REMARK  112  A    between atoms: _266  and  _269
REMARK  113  A    between atoms: _269  and  _270
REMARK  114  A    between atoms: _270  and  _271
REMARK  115  A    between atoms: _271  and  _273
REMARK  116  A    between atoms: _273  and  CO_323
REMARK  117  A    between atoms: _274  and  _276
REMARK  118  A    between atoms: _276  and  _277
REMARK  119  A    between atoms: _276  and  _279
REMARK  120  A    between atoms: _279  and  _280
REMARK  121  A    between atoms: _280  and  _281
REMARK  122  A    between atoms: _283  and  _285
REMARK  123  A    between atoms: _285  and  _286
REMARK  124  A    between atoms: _285  and  _288
REMARK  125  A    between atoms: _288  and  _289
REMARK  126  A    between atoms: _299  and  _301
REMARK  127  A    between atoms: _301  and  _302
REMARK  128  A    between atoms: _301  and  _304
REMARK  129  A    between atoms: _305  and  _306
REMARK  130  A    between atoms: _311  and  _313
REMARK  131  A    between atoms: _313  and  _314
REMARK  132  A    between atoms: _313  and  _316
REMARK  133  A    between atoms: _316  and  _317
REMARK  134  A    between atoms: _317  and  _318
REMARK                            x       y       z     vdW  Elec       q    Type
REMARK                         _______ _______ _______ _____ _____    ______ ____
ROOT
ATOM      1  N   UNK A   1      17.323 -14.029   4.648  0.00  0.00    +0.000 N 
ATOM      2  C   UNK A   1      17.132 -12.926   3.887  0.00  0.00    +0.000 A 
ATOM      3  C   UNK A   1      17.154 -13.346   2.577  0.00  0.00    +0.000 A 
ATOM      4  N   UNK A   1      17.346 -14.703   2.596  0.00  0.00    +0.000 NA
ATOM      5  C   UNK A   1      17.462 -15.090   3.881  0.00  0.00    +0.000 A 
ENDROOT
BRANCH   1  10
ATOM      6 CO   UNK A   1      17.708 -14.928   9.564  0.00  0.00    +0.000 Co
ATOM      7  O   UNK A   1      15.595 -14.460   9.746  0.00  0.00    +0.000 OA
ATOM      8  C   UNK A   1      14.798 -14.542   8.785  0.00  0.00    +0.000 C 
ATOM      9  O   UNK A   1      15.071 -14.652   7.581  0.00  0.00    +0.000 OA
ATOM     10 CO   UNK A   1      16.840 -14.074   6.684  0.00  0.00    +0.000 Co
ATOM     11  O   UNK A   1      17.249 -16.087   6.679  0.00  0.00    +0.000 OA
ATOM     12  C   UNK A   1      16.949 -16.893   7.612  0.00  0.00    +0.000 C 
ATOM     13  C   UNK A   1      16.334 -18.200   7.197  0.00  0.00    +0.000 C 
ATOM     14  O   UNK A   1      19.778 -15.547   9.407  0.00  0.00    +0.000 OA
ATOM     15  O   UNK A   1      17.150 -16.628   8.828  0.00  0.00    +0.000 OA
ATOM     16  O   UNK A   1      17.987 -13.472   8.118  0.00  0.00    +0.000 OA
BRANCH   6  17
ATOM     17  O   UNK A   1      17.862 -15.557  11.558  0.00  0.00    +0.000 OA
BRANCH  17  18
ATOM     18  C   UNK A   1      18.306 -14.495  11.994  0.00  0.00    +0.000 C 
ATOM     19  O   UNK A   1      18.556 -13.471  11.344  0.00  0.00    +0.000 OA
BRANCH  18  20
ATOM     20  C   UNK A   1      18.672 -14.434  13.469  0.00  0.00    +0.000 C 
BRANCH  20  21
ATOM     21  C   UNK A   1      18.365 -15.651  14.304  0.00  0.00    +0.000 C 
BRANCH  21  22
ATOM     22  N   UNK A   1      18.637 -15.423  15.730  0.00  0.00    +0.000 NA
ATOM     23  H   UNK A   1      19.590 -15.153  16.046  0.00  0.00    +0.000 HD
ENDBRANCH  21  22
BRANCH  21  24
ATOM     24  C   UNK A   1      19.149 -16.904  13.914  0.00  0.00    +0.000 C 
ATOM     25  O   UNK A   1      20.368 -16.951  14.048  0.00  0.00    +0.000 OA
ENDBRANCH  21  24
ENDBRANCH  20  21
ENDBRANCH  18  20
ENDBRANCH  17  18
ENDBRANCH   6  17
BRANCH   8  26
ATOM     26  C   UNK A   1      13.321 -14.493   9.142  0.00  0.00    +0.000 C 
BRANCH  26  27
ATOM     27  C   UNK A   1      13.018 -13.829  10.457  0.00  0.00    +0.000 C 
BRANCH  27  28
ATOM     28  C   UNK A   1      11.510 -13.733  10.780  0.00  0.00    +0.000 C 
BRANCH  28  29
ATOM     29  C   UNK A   1      10.849 -15.094  10.590  0.00  0.00    +0.000 C 
ATOM     30  O   UNK A   1      10.904 -15.987  11.412  0.00  0.00    +0.000 OA
ENDBRANCH  28  29
BRANCH  28  31
ATOM     31  N   UNK A   1      11.349 -13.249  12.142  0.00  0.00    +0.000 NA
ATOM     32  H   UNK A   1      11.431 -13.913  12.938  0.00  0.00    +0.000 HD
ENDBRANCH  28  31
ENDBRANCH  27  28
ENDBRANCH  26  27
ENDBRANCH   8  26
BRANCH  10  33
ATOM     33  O   UNK A   1      15.767 -12.178   6.454  0.00  0.00    +0.000 OA
BRANCH  33  34
ATOM     34  C   UNK A   1      15.642 -11.320   7.343  0.00  0.00    +0.000 C 
ATOM     35  O   UNK A   1      16.485 -11.129   8.248  0.00  0.00    +0.000 OA
BRANCH  34  36
ATOM     36  C   UNK A   1      14.370 -10.499   7.412  0.00  0.00    +0.000 C 
BRANCH  36  37
ATOM     37  C   UNK A   1      13.429 -11.040   8.480  0.00  0.00    +0.000 C 
BRANCH  37  38
ATOM     38  C   UNK A   1      12.111 -10.307   8.671  0.00  0.00    +0.000 C 
BRANCH  38  39
ATOM     39  N   UNK A   1      11.328 -10.371   7.433  0.00  0.00    +0.000 NA
ATOM     40  H   UNK A   1      11.311  -9.578   6.760  0.00  0.00    +0.000 HD
ENDBRANCH  38  39
BRANCH  38  41
ATOM     41  C   UNK A   1      12.263  -8.874   9.138  0.00  0.00    +0.000 C 
ATOM     42  O   UNK A   1      13.357  -8.305   9.267  0.00  0.00    +0.000 OA
ENDBRANCH  38  41
ENDBRANCH  37  38
ENDBRANCH  36  37
ENDBRANCH  34  36
ENDBRANCH  33  34
ENDBRANCH  10  33
BRANCH  13  43
ATOM     43  C   UNK A   1      15.811 -19.166   8.255  0.00  0.00    +0.000 C 
BRANCH  43  44
ATOM     44  N   UNK A   1      15.387 -20.396   7.591  0.00  0.00    +0.000 NA
ATOM     45  H   UNK A   1      14.499 -20.361   7.051  0.00  0.00    +0.000 HD
ENDBRANCH  43  44
BRANCH  43  46
ATOM     46  C   UNK A   1      14.680 -18.544   9.077  0.00  0.00    +0.000 C 
ATOM     47  O   UNK A   1      13.599 -18.284   8.559  0.00  0.00    +0.000 OA
ENDBRANCH  43  46
ENDBRANCH  13  43
ENDBRANCH   1  10
BRANCH   3  48
ATOM     48  C   UNK A   1      16.973 -12.511   1.344  0.00  0.00    +0.000 C 
BRANCH  48  49
ATOM     49  C   UNK A   1      15.480 -12.371   0.973  0.00  0.00    +0.000 C 
BRANCH  49  50
ATOM     50  N   UNK A   1      14.772 -11.863   2.134  0.00  0.00    +0.000 N 
ATOM     51  H   UNK A   1      14.228 -12.515   2.734  0.00  0.00    +0.000 HD
ATOM     52  C   GLY A   4      14.815 -10.564   2.435  0.00  0.00    +0.000 C 
ATOM     53  O   GLY A   4      15.386  -9.744   1.714  0.00  0.00    +0.000 OA
BRANCH  52  54
ATOM     54  CA  GLY A   4      14.159 -10.123   3.723  0.00  0.00    +0.000 C 
BRANCH  54  55
ATOM     55  N   GLY A   4      14.375  -8.717   3.972  0.00  0.00    +0.000 N 
ATOM     56  C   CYS A   3      15.537  -8.236   4.379  0.00  0.00    +0.000 C 
ATOM     57  O   CYS A   3      16.486  -8.923   4.715  0.00  0.00    +0.000 OA
ATOM     58  H   GLY A   4      13.585  -8.057   3.825  0.00  0.00    +0.000 HD
BRANCH  56  59
ATOM     59  CA  CYS A   3      15.598  -6.709   4.309  0.00  0.00    +0.000 C 
BRANCH  59  60
ATOM     60  N   CYS A   3      16.862  -6.176   4.827  0.00  0.00    +0.000 N 
ATOM     61  C   TYR A   2      16.878  -5.047   5.538  0.00  0.00    +0.000 C 
ATOM     62  O   TYR A   2      15.865  -4.398   5.811  0.00  0.00    +0.000 OA
ATOM     63  H   CYS A   3      17.752  -6.681   4.639  0.00  0.00    +0.000 HD
BRANCH  61  64
ATOM     64  CA  TYR A   2      18.237  -4.540   6.001  0.00  0.00    +0.000 C 
BRANCH  64  65
ATOM     65  N   TYR A   2      18.266  -3.082   5.947  0.00  0.00    +0.000 N 
ATOM     66  H   TYR A   2      17.554  -2.515   6.450  0.00  0.00    +0.000 HD
ATOM     67  C   UNK A   1      19.229  -2.496   5.236  0.00  0.00    +0.000 C 
ATOM     68  O   UNK A   1      20.107  -3.109   4.599  0.00  0.00    +0.000 OA
BRANCH  67  69
ATOM     69  C   UNK A   1      19.208  -0.982   5.258  0.00  0.00    +0.000 C 
BRANCH  69  70
ATOM     70  N   UNK A   1      18.009  -0.449   5.875  0.00  0.00    +0.000 NA
ATOM     71  H   UNK A   1      18.056  -0.101   6.854  0.00  0.00    +0.000 HD
ENDBRANCH  69  70
BRANCH  69  72
ATOM     72  C   UNK A   1      20.485  -0.472   5.948  0.00  0.00    +0.000 C 
BRANCH  72  73
ATOM     73  C   UNK A   1      20.709   1.019   5.814  0.00  0.00    +0.000 C 
BRANCH  73  74
ATOM     74  C   UNK A   1      19.937   1.809   6.851  0.00  0.00    +0.000 C 
ATOM     75  O   UNK A   1      19.159   1.194   7.615  0.00  0.00    +0.000 OA
ATOM     76  O   UNK A   1      20.110   3.046   6.900  0.00  0.00    +0.000 OA
ENDBRANCH  73  74
ENDBRANCH  72  73
ENDBRANCH  69  72
ENDBRANCH  67  69
ENDBRANCH  64  65
BRANCH  64  77
ATOM     77  CB  TYR A   2      18.585  -5.038   7.412  0.00  0.00    +0.000 C 
BRANCH  77  78
ATOM     78  CG  TYR A   2      20.082  -4.868   7.648  0.00  0.00    +0.000 A 
ATOM     79  CD2 TYR A   2      20.579  -3.674   8.154  0.00  0.00    +0.000 A 
ATOM     80  CE2 TYR A   2      21.951  -3.541   8.356  0.00  0.00    +0.000 A 
ATOM     81  CZ  TYR A   2      22.796  -4.575   8.043  0.00  0.00    +0.000 A 
ATOM     82  CE1 TYR A   2      22.321  -5.767   7.537  0.00  0.00    +0.000 A 
ATOM     83  CD1 TYR A   2      20.960  -5.889   7.342  0.00  0.00    +0.000 A 
BRANCH  81  84
ATOM     84  OH  TYR A   2      24.162  -4.437   8.249  0.00  0.00    +0.000 OA
ATOM     85  HH  TYR A   2      24.469  -5.124   8.892  0.00  0.00    +0.000 HD
ENDBRANCH  81  84
ENDBRANCH  77  78
ENDBRANCH  64  77
ENDBRANCH  61  64
ENDBRANCH  59  60
BRANCH  59  86
ATOM     86  CB  CYS A   3      15.489  -6.264   2.842  0.00  0.00    +0.000 C 
ATOM     87  SG  CYS A   3      16.925  -6.718   1.846  0.00  0.00    +0.000 S 
ENDBRANCH  59  86
ENDBRANCH  56  59
ENDBRANCH  54  55
ENDBRANCH  52  54
ENDBRANCH  49  50
BRANCH  49  88
ATOM     88  C   UNK A   1      14.936 -13.700   0.480  0.00  0.00    +0.000 C 
ATOM     89  O   ACE A   5      14.378 -14.501   1.214  0.00  0.00    +0.000 OA
ENDBRANCH  49  88
ENDBRANCH  48  49
ENDBRANCH   3  48
TORSDOF 41
REMARK  Name = ../refined-set-2016/1yvm/1yvm_pocket.pdb
REMARK  134 active torsions:
REMARK  status: ('A' for Active; 'I' for Inactive)
REMARK    1  A    between atoms: _1  and  _3
REMARK    2  A    between atoms: _3  and  _4
REMARK    3  A    between atoms: _3  and  _6
REMARK    4  A    between atoms: _6  and  _7
REMARK    5  A    between atoms: _9  and  _11
REMARK    6  A    between atoms: _11  and  _12
REMARK    7  A    between atoms: _15  and  _17
REMARK    8  A    between atoms: _17  and  _18
REMARK    9  A    between atoms: _17  and  _20
REMARK   10  A    between atoms: _22  and  _24
REMARK   11  A    between atoms: _24  and  _25
REMARK   12  A    between atoms: _24  and  _27
REMARK   13  A    between atoms: _27  and  _28
REMARK   14  A    between atoms: _31  and  _33
REMARK   15  A    between atoms: _33  and  _34
REMARK   16  A    between atoms: _36  and  _38
REMARK   17  A    between atoms: _38  and  _39
REMARK   18  A    between atoms: _38  and  _41
REMARK   19  A    between atoms: _41  and  _42
REMARK   20  A    between atoms: _47  and  _48
REMARK   21  A    between atoms: _50  and  _52
REMARK   22  A    between atoms: _52  and  _53
REMARK   23  A    between atoms: _52  and  _55
REMARK   24  A    between atoms: _55  and  _56
REMARK   25  A    between atoms: _61  and  _63
REMARK   26  A    between atoms: _63  and  _64
REMARK   27  A    between atoms: _66  and  _68
REMARK   28  A    between atoms: _68  and  _69
REMARK   29  A    between atoms: _68  and  _71
REMARK   30  A    between atoms: _71  and  _72
REMARK   31  A    between atoms: _77  and  _78
REMARK   32  A    between atoms: _81  and  _82
REMARK   33  A    between atoms: _87  and  _89
REMARK   34  A    between atoms: _89  and  _90
REMARK   35  A    between atoms: _89  and  _92
REMARK   36  A    between atoms: _92  and  _93
REMARK   37  A    between atoms: _93  and  _94
REMARK   38  A    between atoms: _94  and  _95
REMARK   39  A    between atoms: _95  and  _96
REMARK   40  A    between atoms: _100  and  _102
REMARK   41  A    between atoms: _102  and  _103
REMARK   42  A    between atoms: _102  and  _105
REMARK   43  A    between atoms: _105  and  _106
REMARK   44  A    between atoms: _108  and  _110
REMARK   45  A    between atoms: _110  and  _111
REMARK   46  A    between atoms: _110  and  _113
REMARK   47  A    between atoms: _116  and  _118
REMARK   48  A    between atoms: _118  and  _119
REMARK   49  A    between atoms: _118  and  _121
REMARK   50  A    between atoms: _123  and  _125
REMARK   51  A    between atoms: _125  and  _126
REMARK   52  A    between atoms: _125  and  _128
REMARK   53  A    between atoms: _130  and  _132
REMARK   54  A    between atoms: _132  and  _133
REMARK   55  A    between atoms: _132  and  _135
REMARK   56  A    between atoms: _135  and  _136
REMARK   57  A    between atoms: _140  and  CO_321
REMARK   58  A    between atoms: _141  and  _143
REMARK   59  A    between atoms: _143  and  _144
REMARK   60  A    between atoms: _146  and  _148
REMARK   61  A    between atoms: _148  and  _149
REMARK   62  A    between atoms: _148  and  _151
REMARK   63  A    between atoms: _151  and  _152
REMARK   64  A    between atoms: _152  and  _153
REMARK   65  A    between atoms: _153  and  CO_322
REMARK   66  A    between atoms: _155  and  _157
REMARK   67  A    between atoms: _157  and  _158
REMARK   68  A    between atoms: _157  and  _160
REMARK   69  A    between atoms: _160  and  _161
REMARK   70  A    between atoms: _164  and  _166
REMARK   71  A    between atoms: _166  and  _167
REMARK   72  A    between atoms: _166  and  _169
REMARK   73  A    between atoms: _173  and  _175
REMARK   74  A    between atoms: _175  and  _176
REMARK   75  A    between atoms: _175  and  _178
REMARK   76  A    between atoms: _178  and  _179
REMARK   77  A    between atoms: _179  and  _180
REMARK   78  A    between atoms: _183  and  _185
REMARK   79  A    between atoms: _185  and  _186
REMARK   80  A    between atoms: _185  and  _188
REMARK   81  A    between atoms: _188  and  _189
REMARK   82  A    between atoms: _194  and  _195
REMARK   83  A    between atoms: _197  and  _199
REMARK   84  A    between atoms: _199  and  _200
REMARK   85  A    between atoms: _199  and  _202
REMARK   86  A    between atoms: _204  and  _206
REMARK   87  A    between atoms: _206  and  _207
REMARK   88  A    between atoms: _209  and  _211
REMARK   89  A    between atoms: _211  and  _212
REMARK   90  A    between atoms: _211  and  _214
REMARK   91  A    between atoms: _214  and  _215
REMARK   92  A    between atoms: _219  and  CO_323
REMARK   93  A    between atoms: _220  and  _222
REMARK   94  A    between atoms: _222  and  _223
REMARK   95  A    between atoms: _222  and  _225
REMARK   96  A    between atoms: _225  and  _226
REMARK   97  A    between atoms: _232  and  _234
REMARK   98  A    between atoms: _234  and  _235
REMARK   99  A    between atoms: _234  and  _237
REMARK  100  A    between atoms: _237  and  _238
REMARK  101  A    between atoms: _243  and  _245
REMARK  102  A    between atoms: _245  and  _246
REMARK  103  A    between atoms: _245  and  _248
REMARK  104  A    between atoms: _248  and  _249
REMARK  105  A    between atoms: _249  and  _250
REMARK  106  A    between atoms: _255  and  _257
REMARK  107  A    between atoms: _257  and  _258
REMARK  108  A    between atoms: _257  and  _260
REMARK  109  A    between atoms: _260  and  _261
REMARK  110  A    between atoms: _264  and  _266
REMARK  111  A    between atoms: _266  and  _267
REMARK  112  A    between atoms: _266  and  _269
REMARK  113  A    between atoms: _269  and  _270
REMARK  114  A    between atoms: _270  and  _271
REMARK  115  A    between atoms: _271  and  _273
REMARK  116  A    between atoms: _273  and  CO_323
REMARK  117  A    between atoms: _274  and  _276
REMARK  118  A    between atoms: _276  and  _277
REMARK  119  A    between atoms: _276  and  _279
REMARK  120  A    between atoms: _279  and  _280
REMARK  121  A    between atoms: _280  and  _281
REMARK  122  A    between atoms: _283  and  _285
REMARK  123  A    between atoms: _285  and  _286
REMARK  124  A    between atoms: _285  and  _288
REMARK  125  A    between atoms: _288  and  _289
REMARK  126  A    between atoms: _299  and  _301
REMARK  127  A    between atoms: _301  and  _302
REMARK  128  A    between atoms: _301  and  _304
REMARK  129  A    between atoms: _305  and  _306
REMARK  130  A    between atoms: _311  and  _313
REMARK  131  A    between atoms: _313  and  _314
REMARK  132  A    between atoms: _313  and  _316
REMARK  133  A    between atoms: _316  and  _317
REMARK  134  A    between atoms: _317  and  _318
REMARK                            x       y       z     vdW  Elec       q    Type
REMARK                         _______ _______ _______ _____ _____    ______ ____
ROOT
ATOM      1  CA  THR A   1      19.620 -20.597   9.751  0.00  0.00    +0.160 C 
ENDROOT
BRANCH   1   2
ATOM      2  N   THR A   1      19.802 -20.117  11.114  0.00  0.00    -0.237 NA
ATOM      3  H   THR A   1      20.701 -20.224  11.625  0.00  0.00    +0.142 HD
ENDBRANCH   1   2
BRANCH   1   4
ATOM      4  C   THR A   1      20.324 -21.950   9.665  0.00  0.00    +0.227 C 
ATOM      5  O   THR A   1      21.541 -22.050   9.937  0.00  0.00    -0.287 OA
ENDBRANCH   1   4
BRANCH   1   6
ATOM      6  CB  THR A   1      20.150 -19.674   8.660  0.00  0.00    +0.134 C 
ATOM      7  CG2 THR A   1      19.855 -20.256   7.289  0.00  0.00    +0.034 C 
BRANCH   6   8
ATOM      8  OG1 THR A   1      19.461 -18.424   8.792  0.00  0.00    -0.383 OA
ATOM      9  HG1 THR A   1      18.488 -18.572   8.682  0.00  0.00    +0.210 HD
ENDBRANCH   6   8
ENDBRANCH   1   6
TORSDOF 4
REMARK  Name = ../refined-set-2016/1yvm/1yvm_pocket.pdb
REMARK  134 active torsions:
REMARK  status: ('A' for Active; 'I' for Inactive)
REMARK    1  A    between atoms: _1  and  _3
REMARK    2  A    between atoms: _3  and  _4
REMARK    3  A    between atoms: _3  and  _6
REMARK    4  A    between atoms: _6  and  _7
REMARK    5  A    between atoms: _9  and  _11
REMARK    6  A    between atoms: _11  and  _12
REMARK    7  A    between atoms: _15  and  _17
REMARK    8  A    between atoms: _17  and  _18
REMARK    9  A    between atoms: _17  and  _20
REMARK   10  A    between atoms: _22  and  _24
REMARK   11  A    between atoms: _24  and  _25
REMARK   12  A    between atoms: _24  and  _27
REMARK   13  A    between atoms: _27  and  _28
REMARK   14  A    between atoms: _31  and  _33
REMARK   15  A    between atoms: _33  and  _34
REMARK   16  A    between atoms: _36  and  _38
REMARK   17  A    between atoms: _38  and  _39
REMARK   18  A    between atoms: _38  and  _41
REMARK   19  A    between atoms: _41  and  _42
REMARK   20  A    between atoms: _47  and  _48
REMARK   21  A    between atoms: _50  and  _52
REMARK   22  A    between atoms: _52  and  _53
REMARK   23  A    between atoms: _52  and  _55
REMARK   24  A    between atoms: _55  and  _56
REMARK   25  A    between atoms: _61  and  _63
REMARK   26  A    between atoms: _63  and  _64
REMARK   27  A    between atoms: _66  and  _68
REMARK   28  A    between atoms: _68  and  _69
REMARK   29  A    between atoms: _68  and  _71
REMARK   30  A    between atoms: _71  and  _72
REMARK   31  A    between atoms: _77  and  _78
REMARK   32  A    between atoms: _81  and  _82
REMARK   33  A    between atoms: _87  and  _89
REMARK   34  A    between atoms: _89  and  _90
REMARK   35  A    between atoms: _89  and  _92
REMARK   36  A    between atoms: _92  and  _93
REMARK   37  A    between atoms: _93  and  _94
REMARK   38  A    between atoms: _94  and  _95
REMARK   39  A    between atoms: _95  and  _96
REMARK   40  A    between atoms: _100  and  _102
REMARK   41  A    between atoms: _102  and  _103
REMARK   42  A    between atoms: _102  and  _105
REMARK   43  A    between atoms: _105  and  _106
REMARK   44  A    between atoms: _108  and  _110
REMARK   45  A    between atoms: _110  and  _111
REMARK   46  A    between atoms: _110  and  _113
REMARK   47  A    between atoms: _116  and  _118
REMARK   48  A    between atoms: _118  and  _119
REMARK   49  A    between atoms: _118  and  _121
REMARK   50  A    between atoms: _123  and  _125
REMARK   51  A    between atoms: _125  and  _126
REMARK   52  A    between atoms: _125  and  _128
REMARK   53  A    between atoms: _130  and  _132
REMARK   54  A    between atoms: _132  and  _133
REMARK   55  A    between atoms: _132  and  _135
REMARK   56  A    between atoms: _135  and  _136
REMARK   57  A    between atoms: _140  and  CO_321
REMARK   58  A    between atoms: _141  and  _143
REMARK   59  A    between atoms: _143  and  _144
REMARK   60  A    between atoms: _146  and  _148
REMARK   61  A    between atoms: _148  and  _149
REMARK   62  A    between atoms: _148  and  _151
REMARK   63  A    between atoms: _151  and  _152
REMARK   64  A    between atoms: _152  and  _153
REMARK   65  A    between atoms: _153  and  CO_322
REMARK   66  A    between atoms: _155  and  _157
REMARK   67  A    between atoms: _157  and  _158
REMARK   68  A    between atoms: _157  and  _160
REMARK   69  A    between atoms: _160  and  _161
REMARK   70  A    between atoms: _164  and  _166
REMARK   71  A    between atoms: _166  and  _167
REMARK   72  A    between atoms: _166  and  _169
REMARK   73  A    between atoms: _173  and  _175
REMARK   74  A    between atoms: _175  and  _176
REMARK   75  A    between atoms: _175  and  _178
REMARK   76  A    between atoms: _178  and  _179
REMARK   77  A    between atoms: _179  and  _180
REMARK   78  A    between atoms: _183  and  _185
REMARK   79  A    between atoms: _185  and  _186
REMARK   80  A    between atoms: _185  and  _188
REMARK   81  A    between atoms: _188  and  _189
REMARK   82  A    between atoms: _194  and  _195
REMARK   83  A    between atoms: _197  and  _199
REMARK   84  A    between atoms: _199  and  _200
REMARK   85  A    between atoms: _199  and  _202
REMARK   86  A    between atoms: _204  and  _206
REMARK   87  A    between atoms: _206  and  _207
REMARK   88  A    between atoms: _209  and  _211
REMARK   89  A    between atoms: _211  and  _212
REMARK   90  A    between atoms: _211  and  _214
REMARK   91  A    between atoms: _214  and  _215
REMARK   92  A    between atoms: _219  and  CO_323
REMARK   93  A    between atoms: _220  and  _222
REMARK   94  A    between atoms: _222  and  _223
REMARK   95  A    between atoms: _222  and  _225
REMARK   96  A    between atoms: _225  and  _226
REMARK   97  A    between atoms: _232  and  _234
REMARK   98  A    between atoms: _234  and  _235
REMARK   99  A    between atoms: _234  and  _237
REMARK  100  A    between atoms: _237  and  _238
REMARK  101  A    between atoms: _243  and  _245
REMARK  102  A    between atoms: _245  and  _246
REMARK  103  A    between atoms: _245  and  _248
REMARK  104  A    between atoms: _248  and  _249
REMARK  105  A    between atoms: _249  and  _250
REMARK  106  A    between atoms: _255  and  _257
REMARK  107  A    between atoms: _257  and  _258
REMARK  108  A    between atoms: _257  and  _260
REMARK  109  A    between atoms: _260  and  _261
REMARK  110  A    between atoms: _264  and  _266
REMARK  111  A    between atoms: _266  and  _267
REMARK  112  A    between atoms: _266  and  _269
REMARK  113  A    between atoms: _269  and  _270
REMARK  114  A    between atoms: _270  and  _271
REMARK  115  A    between atoms: _271  and  _273
REMARK  116  A    between atoms: _273  and  CO_323
REMARK  117  A    between atoms: _274  and  _276
REMARK  118  A    between atoms: _276  and  _277
REMARK  119  A    between atoms: _276  and  _279
REMARK  120  A    between atoms: _279  and  _280
REMARK  121  A    between atoms: _280  and  _281
REMARK  122  A    between atoms: _283  and  _285
REMARK  123  A    between atoms: _285  and  _286
REMARK  124  A    between atoms: _285  and  _288
REMARK  125  A    between atoms: _288  and  _289
REMARK  126  A    between atoms: _299  and  _301
REMARK  127  A    between atoms: _301  and  _302
REMARK  128  A    between atoms: _301  and  _304
REMARK  129  A    between atoms: _305  and  _306
REMARK  130  A    between atoms: _311  and  _313
REMARK  131  A    between atoms: _313  and  _314
REMARK  132  A    between atoms: _313  and  _316
REMARK  133  A    between atoms: _316  and  _317
REMARK  134  A    between atoms: _317  and  _318
REMARK                            x       y       z     vdW  Elec       q    Type
REMARK                         _______ _______ _______ _____ _____    ______ ____
ROOT
ATOM      1  C   PHE A   1      20.356 -17.163   1.601  0.00  0.00    +0.239 C 
ATOM      2  O   PHE A   1      19.229 -16.947   2.074  0.00  0.00    -0.274 OA
ATOM      3  N   HIS A   2      20.991 -16.280   0.844  0.00  0.00    -0.298 N 
ATOM      4  H   HIS A   2      21.917 -16.553   0.458  0.00  0.00    +0.150 HD
ENDROOT
BRANCH   1   5
ATOM      5  CA  PHE A   1      21.093 -18.443   1.940  0.00  0.00    +0.149 C 
BRANCH   5   6
ATOM      6  N   PHE A   1      21.576 -19.139   0.740  0.00  0.00    -0.238 NA
ATOM      7  H   PHE A   1      22.601 -19.168   0.564  0.00  0.00    +0.142 HD
ENDBRANCH   5   6
BRANCH   5   8
ATOM      8  CB  PHE A   1      22.312 -18.136   2.801  0.00  0.00    +0.053 C 
BRANCH   8   9
ATOM      9  CG  PHE A   1      22.129 -17.745   4.247  0.00  0.00    -0.020 A 
ATOM     10  CD2 PHE A   1      23.219 -17.769   5.081  0.00  0.00    -0.004 A 
ATOM     11  CE2 PHE A   1      23.142 -17.413   6.406  0.00  0.00    -0.000 A 
ATOM     12  CZ  PHE A   1      21.939 -17.027   6.960  0.00  0.00    -0.000 A 
ATOM     13  CE1 PHE A   1      20.828 -17.008   6.146  0.00  0.00    -0.000 A 
ATOM     14  CD1 PHE A   1      20.935 -17.361   4.821  0.00  0.00    -0.004 A 
ENDBRANCH   8   9
ENDBRANCH   5   8
ENDBRANCH   1   5
BRANCH   3  15
ATOM     15  CA  HIS A   2      20.486 -14.960   0.516  0.00  0.00    +0.143 C 
BRANCH  15  16
ATOM     16  C   HIS A   2      20.414 -14.920  -1.018  0.00  0.00    +0.227 C 
ATOM     17  O   HIS A   2      21.423 -14.669  -1.676  0.00  0.00    -0.286 OA
ENDBRANCH  15  16
BRANCH  15  18
ATOM     18  CB  HIS A   2      21.360 -13.858   1.094  0.00  0.00    +0.075 C 
BRANCH  18  19
ATOM     19  CG  HIS A   2      21.540 -13.891   2.584  0.00  0.00    +0.082 A 
ATOM     20  CD2 HIS A   2      20.852 -13.319   3.597  0.00  0.00    +0.115 A 
ATOM     21  NE2 HIS A   2      21.461 -13.694   4.777  0.00  0.00    -0.221 NA
ATOM     22  CE1 HIS A   2      22.486 -14.464   4.520  0.00  0.00    +0.199 A 
ATOM     23  ND1 HIS A   2      22.550 -14.598   3.204  0.00  0.00    -0.227 NA
ENDBRANCH  18  19
ENDBRANCH  15  18
ENDBRANCH   3  15
TORSDOF 8
REMARK  Name = ../refined-set-2016/1yvm/1yvm_pocket.pdb
REMARK  134 active torsions:
REMARK  status: ('A' for Active; 'I' for Inactive)
REMARK    1  A    between atoms: _1  and  _3
REMARK    2  A    between atoms: _3  and  _4
REMARK    3  A    between atoms: _3  and  _6
REMARK    4  A    between atoms: _6  and  _7
REMARK    5  A    between atoms: _9  and  _11
REMARK    6  A    between atoms: _11  and  _12
REMARK    7  A    between atoms: _15  and  _17
REMARK    8  A    between atoms: _17  and  _18
REMARK    9  A    between atoms: _17  and  _20
REMARK   10  A    between atoms: _22  and  _24
REMARK   11  A    between atoms: _24  and  _25
REMARK   12  A    between atoms: _24  and  _27
REMARK   13  A    between atoms: _27  and  _28
REMARK   14  A    between atoms: _31  and  _33
REMARK   15  A    between atoms: _33  and  _34
REMARK   16  A    between atoms: _36  and  _38
REMARK   17  A    between atoms: _38  and  _39
REMARK   18  A    between atoms: _38  and  _41
REMARK   19  A    between atoms: _41  and  _42
REMARK   20  A    between atoms: _47  and  _48
REMARK   21  A    between atoms: _50  and  _52
REMARK   22  A    between atoms: _52  and  _53
REMARK   23  A    between atoms: _52  and  _55
REMARK   24  A    between atoms: _55  and  _56
REMARK   25  A    between atoms: _61  and  _63
REMARK   26  A    between atoms: _63  and  _64
REMARK   27  A    between atoms: _66  and  _68
REMARK   28  A    between atoms: _68  and  _69
REMARK   29  A    between atoms: _68  and  _71
REMARK   30  A    between atoms: _71  and  _72
REMARK   31  A    between atoms: _77  and  _78
REMARK   32  A    between atoms: _81  and  _82
REMARK   33  A    between atoms: _87  and  _89
REMARK   34  A    between atoms: _89  and  _90
REMARK   35  A    between atoms: _89  and  _92
REMARK   36  A    between atoms: _92  and  _93
REMARK   37  A    between atoms: _93  and  _94
REMARK   38  A    between atoms: _94  and  _95
REMARK   39  A    between atoms: _95  and  _96
REMARK   40  A    between atoms: _100  and  _102
REMARK   41  A    between atoms: _102  and  _103
REMARK   42  A    between atoms: _102  and  _105
REMARK   43  A    between atoms: _105  and  _106
REMARK   44  A    between atoms: _108  and  _110
REMARK   45  A    between atoms: _110  and  _111
REMARK   46  A    between atoms: _110  and  _113
REMARK   47  A    between atoms: _116  and  _118
REMARK   48  A    between atoms: _118  and  _119
REMARK   49  A    between atoms: _118  and  _121
REMARK   50  A    between atoms: _123  and  _125
REMARK   51  A    between atoms: _125  and  _126
REMARK   52  A    between atoms: _125  and  _128
REMARK   53  A    between atoms: _130  and  _132
REMARK   54  A    between atoms: _132  and  _133
REMARK   55  A    between atoms: _132  and  _135
REMARK   56  A    between atoms: _135  and  _136
REMARK   57  A    between atoms: _140  and  CO_321
REMARK   58  A    between atoms: _141  and  _143
REMARK   59  A    between atoms: _143  and  _144
REMARK   60  A    between atoms: _146  and  _148
REMARK   61  A    between atoms: _148  and  _149
REMARK   62  A    between atoms: _148  and  _151
REMARK   63  A    between atoms: _151  and  _152
REMARK   64  A    between atoms: _152  and  _153
REMARK   65  A    between atoms: _153  and  CO_322
REMARK   66  A    between atoms: _155  and  _157
REMARK   67  A    between atoms: _157  and  _158
REMARK   68  A    between atoms: _157  and  _160
REMARK   69  A    between atoms: _160  and  _161
REMARK   70  A    between atoms: _164  and  _166
REMARK   71  A    between atoms: _166  and  _167
REMARK   72  A    between atoms: _166  and  _169
REMARK   73  A    between atoms: _173  and  _175
REMARK   74  A    between atoms: _175  and  _176
REMARK   75  A    between atoms: _175  and  _178
REMARK   76  A    between atoms: _178  and  _179
REMARK   77  A    between atoms: _179  and  _180
REMARK   78  A    between atoms: _183  and  _185
REMARK   79  A    between atoms: _185  and  _186
REMARK   80  A    between atoms: _185  and  _188
REMARK   81  A    between atoms: _188  and  _189
REMARK   82  A    between atoms: _194  and  _195
REMARK   83  A    between atoms: _197  and  _199
REMARK   84  A    between atoms: _199  and  _200
REMARK   85  A    between atoms: _199  and  _202
REMARK   86  A    between atoms: _204  and  _206
REMARK   87  A    between atoms: _206  and  _207
REMARK   88  A    between atoms: _209  and  _211
REMARK   89  A    between atoms: _211  and  _212
REMARK   90  A    between atoms: _211  and  _214
REMARK   91  A    between atoms: _214  and  _215
REMARK   92  A    between atoms: _219  and  CO_323
REMARK   93  A    between atoms: _220  and  _222
REMARK   94  A    between atoms: _222  and  _223
REMARK   95  A    between atoms: _222  and  _225
REMARK   96  A    between atoms: _225  and  _226
REMARK   97  A    between atoms: _232  and  _234
REMARK   98  A    between atoms: _234  and  _235
REMARK   99  A    between atoms: _234  and  _237
REMARK  100  A    between atoms: _237  and  _238
REMARK  101  A    between atoms: _243  and  _245
REMARK  102  A    between atoms: _245  and  _246
REMARK  103  A    between atoms: _245  and  _248
REMARK  104  A    between atoms: _248  and  _249
REMARK  105  A    between atoms: _249  and  _250
REMARK  106  A    between atoms: _255  and  _257
REMARK  107  A    between atoms: _257  and  _258
REMARK  108  A    between atoms: _257  and  _260
REMARK  109  A    between atoms: _260  and  _261
REMARK  110  A    between atoms: _264  and  _266
REMARK  111  A    between atoms: _266  and  _267
REMARK  112  A    between atoms: _266  and  _269
REMARK  113  A    between atoms: _269  and  _270
REMARK  114  A    between atoms: _270  and  _271
REMARK  115  A    between atoms: _271  and  _273
REMARK  116  A    between atoms: _273  and  CO_323
REMARK  117  A    between atoms: _274  and  _276
REMARK  118  A    between atoms: _276  and  _277
REMARK  119  A    between atoms: _276  and  _279
REMARK  120  A    between atoms: _279  and  _280
REMARK  121  A    between atoms: _280  and  _281
REMARK  122  A    between atoms: _283  and  _285
REMARK  123  A    between atoms: _285  and  _286
REMARK  124  A    between atoms: _285  and  _288
REMARK  125  A    between atoms: _288  and  _289
REMARK  126  A    between atoms: _299  and  _301
REMARK  127  A    between atoms: _301  and  _302
REMARK  128  A    between atoms: _301  and  _304
REMARK  129  A    between atoms: _305  and  _306
REMARK  130  A    between atoms: _311  and  _313
REMARK  131  A    between atoms: _313  and  _314
REMARK  132  A    between atoms: _313  and  _316
REMARK  133  A    between atoms: _316  and  _317
REMARK  134  A    between atoms: _317  and  _318
REMARK                            x       y       z     vdW  Elec       q    Type
REMARK                         _______ _______ _______ _____ _____    ______ ____
ROOT
ATOM      1  CB  GLN A   1      16.029  -7.074  -1.949  0.00  0.00    +0.035 C 
ENDROOT
BRANCH   1   2
ATOM      2  CA  GLN A   1      15.325  -8.398  -1.737  0.00  0.00    +0.134 C 
BRANCH   2   3
ATOM      3  N   GLN A   1      15.381  -9.243  -2.919  0.00  0.00    -0.239 NA
ATOM      4  H   GLN A   1      15.766  -8.815  -3.785  0.00  0.00    +0.142 HD
ENDBRANCH   2   3
BRANCH   2   5
ATOM      5  C   GLN A   1      13.859  -8.125  -1.367  0.00  0.00    +0.224 C 
ATOM      6  O   GLN A   1      13.005  -7.808  -2.205  0.00  0.00    -0.287 OA
ENDBRANCH   2   5
ENDBRANCH   1   2
BRANCH   1   7
ATOM      7  CG  GLN A   1      17.545  -7.126  -1.910  0.00  0.00    +0.087 C 
BRANCH   7   8
ATOM      8  CD  GLN A   1      18.141  -5.763  -1.568  0.00  0.00    +0.219 C 
ATOM      9  NE2 GLN A   1      18.922  -5.704  -0.491  0.00  0.00    -0.329 N 
ATOM     10 HE21 GLN A   1      19.101  -6.562   0.069  0.00  0.00    +0.145 HD
ATOM     11 HE22 GLN A   1      19.353  -4.800  -0.210  0.00  0.00    +0.145 HD
ATOM     12  OE1 GLN A   1      17.906  -4.768  -2.257  0.00  0.00    -0.275 OA
ENDBRANCH   7   8
ENDBRANCH   1   7
TORSDOF 5
REMARK  Name = ../refined-set-2016/1yvm/1yvm_pocket.pdb
REMARK  134 active torsions:
REMARK  status: ('A' for Active; 'I' for Inactive)
REMARK    1  A    between atoms: _1  and  _3
REMARK    2  A    between atoms: _3  and  _4
REMARK    3  A    between atoms: _3  and  _6
REMARK    4  A    between atoms: _6  and  _7
REMARK    5  A    between atoms: _9  and  _11
REMARK    6  A    between atoms: _11  and  _12
REMARK    7  A    between atoms: _15  and  _17
REMARK    8  A    between atoms: _17  and  _18
REMARK    9  A    between atoms: _17  and  _20
REMARK   10  A    between atoms: _22  and  _24
REMARK   11  A    between atoms: _24  and  _25
REMARK   12  A    between atoms: _24  and  _27
REMARK   13  A    between atoms: _27  and  _28
REMARK   14  A    between atoms: _31  and  _33
REMARK   15  A    between atoms: _33  and  _34
REMARK   16  A    between atoms: _36  and  _38
REMARK   17  A    between atoms: _38  and  _39
REMARK   18  A    between atoms: _38  and  _41
REMARK   19  A    between atoms: _41  and  _42
REMARK   20  A    between atoms: _47  and  _48
REMARK   21  A    between atoms: _50  and  _52
REMARK   22  A    between atoms: _52  and  _53
REMARK   23  A    between atoms: _52  and  _55
REMARK   24  A    between atoms: _55  and  _56
REMARK   25  A    between atoms: _61  and  _63
REMARK   26  A    between atoms: _63  and  _64
REMARK   27  A    between atoms: _66  and  _68
REMARK   28  A    between atoms: _68  and  _69
REMARK   29  A    between atoms: _68  and  _71
REMARK   30  A    between atoms: _71  and  _72
REMARK   31  A    between atoms: _77  and  _78
REMARK   32  A    between atoms: _81  and  _82
REMARK   33  A    between atoms: _87  and  _89
REMARK   34  A    between atoms: _89  and  _90
REMARK   35  A    between atoms: _89  and  _92
REMARK   36  A    between atoms: _92  and  _93
REMARK   37  A    between atoms: _93  and  _94
REMARK   38  A    between atoms: _94  and  _95
REMARK   39  A    between atoms: _95  and  _96
REMARK   40  A    between atoms: _100  and  _102
REMARK   41  A    between atoms: _102  and  _103
REMARK   42  A    between atoms: _102  and  _105
REMARK   43  A    between atoms: _105  and  _106
REMARK   44  A    between atoms: _108  and  _110
REMARK   45  A    between atoms: _110  and  _111
REMARK   46  A    between atoms: _110  and  _113
REMARK   47  A    between atoms: _116  and  _118
REMARK   48  A    between atoms: _118  and  _119
REMARK   49  A    between atoms: _118  and  _121
REMARK   50  A    between atoms: _123  and  _125
REMARK   51  A    between atoms: _125  and  _126
REMARK   52  A    between atoms: _125  and  _128
REMARK   53  A    between atoms: _130  and  _132
REMARK   54  A    between atoms: _132  and  _133
REMARK   55  A    between atoms: _132  and  _135
REMARK   56  A    between atoms: _135  and  _136
REMARK   57  A    between atoms: _140  and  CO_321
REMARK   58  A    between atoms: _141  and  _143
REMARK   59  A    between atoms: _143  and  _144
REMARK   60  A    between atoms: _146  and  _148
REMARK   61  A    between atoms: _148  and  _149
REMARK   62  A    between atoms: _148  and  _151
REMARK   63  A    between atoms: _151  and  _152
REMARK   64  A    between atoms: _152  and  _153
REMARK   65  A    between atoms: _153  and  CO_322
REMARK   66  A    between atoms: _155  and  _157
REMARK   67  A    between atoms: _157  and  _158
REMARK   68  A    between atoms: _157  and  _160
REMARK   69  A    between atoms: _160  and  _161
REMARK   70  A    between atoms: _164  and  _166
REMARK   71  A    between atoms: _166  and  _167
REMARK   72  A    between atoms: _166  and  _169
REMARK   73  A    between atoms: _173  and  _175
REMARK   74  A    between atoms: _175  and  _176
REMARK   75  A    between atoms: _175  and  _178
REMARK   76  A    between atoms: _178  and  _179
REMARK   77  A    between atoms: _179  and  _180
REMARK   78  A    between atoms: _183  and  _185
REMARK   79  A    between atoms: _185  and  _186
REMARK   80  A    between atoms: _185  and  _188
REMARK   81  A    between atoms: _188  and  _189
REMARK   82  A    between atoms: _194  and  _195
REMARK   83  A    between atoms: _197  and  _199
REMARK   84  A    between atoms: _199  and  _200
REMARK   85  A    between atoms: _199  and  _202
REMARK   86  A    between atoms: _204  and  _206
REMARK   87  A    between atoms: _206  and  _207
REMARK   88  A    between atoms: _209  and  _211
REMARK   89  A    between atoms: _211  and  _212
REMARK   90  A    between atoms: _211  and  _214
REMARK   91  A    between atoms: _214  and  _215
REMARK   92  A    between atoms: _219  and  CO_323
REMARK   93  A    between atoms: _220  and  _222
REMARK   94  A    between atoms: _222  and  _223
REMARK   95  A    between atoms: _222  and  _225
REMARK   96  A    between atoms: _225  and  _226
REMARK   97  A    between atoms: _232  and  _234
REMARK   98  A    between atoms: _234  and  _235
REMARK   99  A    between atoms: _234  and  _237
REMARK  100  A    between atoms: _237  and  _238
REMARK  101  A    between atoms: _243  and  _245
REMARK  102  A    between atoms: _245  and  _246
REMARK  103  A    between atoms: _245  and  _248
REMARK  104  A    between atoms: _248  and  _249
REMARK  105  A    between atoms: _249  and  _250
REMARK  106  A    between atoms: _255  and  _257
REMARK  107  A    between atoms: _257  and  _258
REMARK  108  A    between atoms: _257  and  _260
REMARK  109  A    between atoms: _260  and  _261
REMARK  110  A    between atoms: _264  and  _266
REMARK  111  A    between atoms: _266  and  _267
REMARK  112  A    between atoms: _266  and  _269
REMARK  113  A    between atoms: _269  and  _270
REMARK  114  A    between atoms: _270  and  _271
REMARK  115  A    between atoms: _271  and  _273
REMARK  116  A    between atoms: _273  and  CO_323
REMARK  117  A    between atoms: _274  and  _276
REMARK  118  A    between atoms: _276  and  _277
REMARK  119  A    between atoms: _276  and  _279
REMARK  120  A    between atoms: _279  and  _280
REMARK  121  A    between atoms: _280  and  _281
REMARK  122  A    between atoms: _283  and  _285
REMARK  123  A    between atoms: _285  and  _286
REMARK  124  A    between atoms: _285  and  _288
REMARK  125  A    between atoms: _288  and  _289
REMARK  126  A    between atoms: _299  and  _301
REMARK  127  A    between atoms: _301  and  _302
REMARK  128  A    between atoms: _301  and  _304
REMARK  129  A    between atoms: _305  and  _306
REMARK  130  A    between atoms: _311  and  _313
REMARK  131  A    between atoms: _313  and  _314
REMARK  132  A    between atoms: _313  and  _316
REMARK  133  A    between atoms: _316  and  _317
REMARK  134  A    between atoms: _317  and  _318
REMARK                            x       y       z     vdW  Elec       q    Type
REMARK                         _______ _______ _______ _____ _____    ______ ____
ROOT
ATOM      1  CA  THR A   1      11.910 -14.633   4.166  0.00  0.00    +0.160 C 
ENDROOT
BRANCH   1   2
ATOM      2  N   THR A   1      12.107 -14.983   2.763  0.00  0.00    -0.237 NA
ATOM      3  H   THR A   1      12.864 -14.513   2.228  0.00  0.00    +0.142 HD
ENDBRANCH   1   2
BRANCH   1   4
ATOM      4  CB  THR A   1      13.234 -14.659   4.957  0.00  0.00    +0.134 C 
ATOM      5  CG2 THR A   1      14.056 -15.881   4.611  0.00  0.00    +0.034 C 
BRANCH   4   6
ATOM      6  OG1 THR A   1      13.958 -13.458   4.616  0.00  0.00    -0.383 OA
ATOM      7  HG1 THR A   1      14.817 -13.441   5.108  0.00  0.00    +0.210 HD
ENDBRANCH   4   6
ENDBRANCH   1   4
BRANCH   1   8
ATOM      8  C   THR A   1      11.291 -13.245   4.283  0.00  0.00    +0.227 C 
ATOM      9  O   THR A   1      11.457 -12.458   3.356  0.00  0.00    -0.287 OA
ENDBRANCH   1   8
TORSDOF 4
REMARK  Name = ../refined-set-2016/1yvm/1yvm_pocket.pdb
REMARK  134 active torsions:
REMARK  status: ('A' for Active; 'I' for Inactive)
REMARK    1  A    between atoms: _1  and  _3
REMARK    2  A    between atoms: _3  and  _4
REMARK    3  A    between atoms: _3  and  _6
REMARK    4  A    between atoms: _6  and  _7
REMARK    5  A    between atoms: _9  and  _11
REMARK    6  A    between atoms: _11  and  _12
REMARK    7  A    between atoms: _15  and  _17
REMARK    8  A    between atoms: _17  and  _18
REMARK    9  A    between atoms: _17  and  _20
REMARK   10  A    between atoms: _22  and  _24
REMARK   11  A    between atoms: _24  and  _25
REMARK   12  A    between atoms: _24  and  _27
REMARK   13  A    between atoms: _27  and  _28
REMARK   14  A    between atoms: _31  and  _33
REMARK   15  A    between atoms: _33  and  _34
REMARK   16  A    between atoms: _36  and  _38
REMARK   17  A    between atoms: _38  and  _39
REMARK   18  A    between atoms: _38  and  _41
REMARK   19  A    between atoms: _41  and  _42
REMARK   20  A    between atoms: _47  and  _48
REMARK   21  A    between atoms: _50  and  _52
REMARK   22  A    between atoms: _52  and  _53
REMARK   23  A    between atoms: _52  and  _55
REMARK   24  A    between atoms: _55  and  _56
REMARK   25  A    between atoms: _61  and  _63
REMARK   26  A    between atoms: _63  and  _64
REMARK   27  A    between atoms: _66  and  _68
REMARK   28  A    between atoms: _68  and  _69
REMARK   29  A    between atoms: _68  and  _71
REMARK   30  A    between atoms: _71  and  _72
REMARK   31  A    between atoms: _77  and  _78
REMARK   32  A    between atoms: _81  and  _82
REMARK   33  A    between atoms: _87  and  _89
REMARK   34  A    between atoms: _89  and  _90
REMARK   35  A    between atoms: _89  and  _92
REMARK   36  A    between atoms: _92  and  _93
REMARK   37  A    between atoms: _93  and  _94
REMARK   38  A    between atoms: _94  and  _95
REMARK   39  A    between atoms: _95  and  _96
REMARK   40  A    between atoms: _100  and  _102
REMARK   41  A    between atoms: _102  and  _103
REMARK   42  A    between atoms: _102  and  _105
REMARK   43  A    between atoms: _105  and  _106
REMARK   44  A    between atoms: _108  and  _110
REMARK   45  A    between atoms: _110  and  _111
REMARK   46  A    between atoms: _110  and  _113
REMARK   47  A    between atoms: _116  and  _118
REMARK   48  A    between atoms: _118  and  _119
REMARK   49  A    between atoms: _118  and  _121
REMARK   50  A    between atoms: _123  and  _125
REMARK   51  A    between atoms: _125  and  _126
REMARK   52  A    between atoms: _125  and  _128
REMARK   53  A    between atoms: _130  and  _132
REMARK   54  A    between atoms: _132  and  _133
REMARK   55  A    between atoms: _132  and  _135
REMARK   56  A    between atoms: _135  and  _136
REMARK   57  A    between atoms: _140  and  CO_321
REMARK   58  A    between atoms: _141  and  _143
REMARK   59  A    between atoms: _143  and  _144
REMARK   60  A    between atoms: _146  and  _148
REMARK   61  A    between atoms: _148  and  _149
REMARK   62  A    between atoms: _148  and  _151
REMARK   63  A    between atoms: _151  and  _152
REMARK   64  A    between atoms: _152  and  _153
REMARK   65  A    between atoms: _153  and  CO_322
REMARK   66  A    between atoms: _155  and  _157
REMARK   67  A    between atoms: _157  and  _158
REMARK   68  A    between atoms: _157  and  _160
REMARK   69  A    between atoms: _160  and  _161
REMARK   70  A    between atoms: _164  and  _166
REMARK   71  A    between atoms: _166  and  _167
REMARK   72  A    between atoms: _166  and  _169
REMARK   73  A    between atoms: _173  and  _175
REMARK   74  A    between atoms: _175  and  _176
REMARK   75  A    between atoms: _175  and  _178
REMARK   76  A    between atoms: _178  and  _179
REMARK   77  A    between atoms: _179  and  _180
REMARK   78  A    between atoms: _183  and  _185
REMARK   79  A    between atoms: _185  and  _186
REMARK   80  A    between atoms: _185  and  _188
REMARK   81  A    between atoms: _188  and  _189
REMARK   82  A    between atoms: _194  and  _195
REMARK   83  A    between atoms: _197  and  _199
REMARK   84  A    between atoms: _199  and  _200
REMARK   85  A    between atoms: _199  and  _202
REMARK   86  A    between atoms: _204  and  _206
REMARK   87  A    between atoms: _206  and  _207
REMARK   88  A    between atoms: _209  and  _211
REMARK   89  A    between atoms: _211  and  _212
REMARK   90  A    between atoms: _211  and  _214
REMARK   91  A    between atoms: _214  and  _215
REMARK   92  A    between atoms: _219  and  CO_323
REMARK   93  A    between atoms: _220  and  _222
REMARK   94  A    between atoms: _222  and  _223
REMARK   95  A    between atoms: _222  and  _225
REMARK   96  A    between atoms: _225  and  _226
REMARK   97  A    between atoms: _232  and  _234
REMARK   98  A    between atoms: _234  and  _235
REMARK   99  A    between atoms: _234  and  _237
REMARK  100  A    between atoms: _237  and  _238
REMARK  101  A    between atoms: _243  and  _245
REMARK  102  A    between atoms: _245  and  _246
REMARK  103  A    between atoms: _245  and  _248
REMARK  104  A    between atoms: _248  and  _249
REMARK  105  A    between atoms: _249  and  _250
REMARK  106  A    between atoms: _255  and  _257
REMARK  107  A    between atoms: _257  and  _258
REMARK  108  A    between atoms: _257  and  _260
REMARK  109  A    between atoms: _260  and  _261
REMARK  110  A    between atoms: _264  and  _266
REMARK  111  A    between atoms: _266  and  _267
REMARK  112  A    between atoms: _266  and  _269
REMARK  113  A    between atoms: _269  and  _270
REMARK  114  A    between atoms: _270  and  _271
REMARK  115  A    between atoms: _271  and  _273
REMARK  116  A    between atoms: _273  and  CO_323
REMARK  117  A    between atoms: _274  and  _276
REMARK  118  A    between atoms: _276  and  _277
REMARK  119  A    between atoms: _276  and  _279
REMARK  120  A    between atoms: _279  and  _280
REMARK  121  A    between atoms: _280  and  _281
REMARK  122  A    between atoms: _283  and  _285
REMARK  123  A    between atoms: _285  and  _286
REMARK  124  A    between atoms: _285  and  _288
REMARK  125  A    between atoms: _288  and  _289
REMARK  126  A    between atoms: _299  and  _301
REMARK  127  A    between atoms: _301  and  _302
REMARK  128  A    between atoms: _301  and  _304
REMARK  129  A    between atoms: _305  and  _306
REMARK  130  A    between atoms: _311  and  _313
REMARK  131  A    between atoms: _313  and  _314
REMARK  132  A    between atoms: _313  and  _316
REMARK  133  A    between atoms: _316  and  _317
REMARK  134  A    between atoms: _317  and  _318
REMARK                            x       y       z     vdW  Elec       q    Type
REMARK                         _______ _______ _______ _____ _____    ______ ____
ROOT
ATOM      1  CA  MET A   1      13.591  -4.904  12.014  0.00  0.00    +0.134 C 
ENDROOT
BRANCH   1   2
ATOM      2  N   MET A   1      12.828  -5.492  10.931  0.00  0.00    -0.239 NA
ATOM      3  H   MET A   1      12.941  -5.063   9.990  0.00  0.00    +0.142 HD
ENDBRANCH   1   2
BRANCH   1   4
ATOM      4  C   MET A   1      12.913  -3.585  12.378  0.00  0.00    +0.224 C 
ATOM      5  O   MET A   1      12.799  -2.706  11.509  0.00  0.00    -0.287 OA
ENDBRANCH   1   4
BRANCH   1   6
ATOM      6  CB  MET A   1      15.050  -4.758  11.630  0.00  0.00    +0.037 C 
BRANCH   6   7
ATOM      7  CG  MET A   1      15.797  -6.068  11.445  0.00  0.00    +0.059 C 
BRANCH   7   8
ATOM      8  SD  MET A   1      17.410  -5.797  10.703  0.00  0.00    -0.139 S 
ATOM      9  CE  MET A   1      17.863  -7.367  10.016  0.00  0.00    +0.069 C 
ENDBRANCH   7   8
ENDBRANCH   6   7
ENDBRANCH   1   6
TORSDOF 5
REMARK  Name = ../refined-set-2016/1yvm/1yvm_pocket.pdb
REMARK  134 active torsions:
REMARK  status: ('A' for Active; 'I' for Inactive)
REMARK    1  A    between atoms: _1  and  _3
REMARK    2  A    between atoms: _3  and  _4
REMARK    3  A    between atoms: _3  and  _6
REMARK    4  A    between atoms: _6  and  _7
REMARK    5  A    between atoms: _9  and  _11
REMARK    6  A    between atoms: _11  and  _12
REMARK    7  A    between atoms: _15  and  _17
REMARK    8  A    between atoms: _17  and  _18
REMARK    9  A    between atoms: _17  and  _20
REMARK   10  A    between atoms: _22  and  _24
REMARK   11  A    between atoms: _24  and  _25
REMARK   12  A    between atoms: _24  and  _27
REMARK   13  A    between atoms: _27  and  _28
REMARK   14  A    between atoms: _31  and  _33
REMARK   15  A    between atoms: _33  and  _34
REMARK   16  A    between atoms: _36  and  _38
REMARK   17  A    between atoms: _38  and  _39
REMARK   18  A    between atoms: _38  and  _41
REMARK   19  A    between atoms: _41  and  _42
REMARK   20  A    between atoms: _47  and  _48
REMARK   21  A    between atoms: _50  and  _52
REMARK   22  A    between atoms: _52  and  _53
REMARK   23  A    between atoms: _52  and  _55
REMARK   24  A    between atoms: _55  and  _56
REMARK   25  A    between atoms: _61  and  _63
REMARK   26  A    between atoms: _63  and  _64
REMARK   27  A    between atoms: _66  and  _68
REMARK   28  A    between atoms: _68  and  _69
REMARK   29  A    between atoms: _68  and  _71
REMARK   30  A    between atoms: _71  and  _72
REMARK   31  A    between atoms: _77  and  _78
REMARK   32  A    between atoms: _81  and  _82
REMARK   33  A    between atoms: _87  and  _89
REMARK   34  A    between atoms: _89  and  _90
REMARK   35  A    between atoms: _89  and  _92
REMARK   36  A    between atoms: _92  and  _93
REMARK   37  A    between atoms: _93  and  _94
REMARK   38  A    between atoms: _94  and  _95
REMARK   39  A    between atoms: _95  and  _96
REMARK   40  A    between atoms: _100  and  _102
REMARK   41  A    between atoms: _102  and  _103
REMARK   42  A    between atoms: _102  and  _105
REMARK   43  A    between atoms: _105  and  _106
REMARK   44  A    between atoms: _108  and  _110
REMARK   45  A    between atoms: _110  and  _111
REMARK   46  A    between atoms: _110  and  _113
REMARK   47  A    between atoms: _116  and  _118
REMARK   48  A    between atoms: _118  and  _119
REMARK   49  A    between atoms: _118  and  _121
REMARK   50  A    between atoms: _123  and  _125
REMARK   51  A    between atoms: _125  and  _126
REMARK   52  A    between atoms: _125  and  _128
REMARK   53  A    between atoms: _130  and  _132
REMARK   54  A    between atoms: _132  and  _133
REMARK   55  A    between atoms: _132  and  _135
REMARK   56  A    between atoms: _135  and  _136
REMARK   57  A    between atoms: _140  and  CO_321
REMARK   58  A    between atoms: _141  and  _143
REMARK   59  A    between atoms: _143  and  _144
REMARK   60  A    between atoms: _146  and  _148
REMARK   61  A    between atoms: _148  and  _149
REMARK   62  A    between atoms: _148  and  _151
REMARK   63  A    between atoms: _151  and  _152
REMARK   64  A    between atoms: _152  and  _153
REMARK   65  A    between atoms: _153  and  CO_322
REMARK   66  A    between atoms: _155  and  _157
REMARK   67  A    between atoms: _157  and  _158
REMARK   68  A    between atoms: _157  and  _160
REMARK   69  A    between atoms: _160  and  _161
REMARK   70  A    between atoms: _164  and  _166
REMARK   71  A    between atoms: _166  and  _167
REMARK   72  A    between atoms: _166  and  _169
REMARK   73  A    between atoms: _173  and  _175
REMARK   74  A    between atoms: _175  and  _176
REMARK   75  A    between atoms: _175  and  _178
REMARK   76  A    between atoms: _178  and  _179
REMARK   77  A    between atoms: _179  and  _180
REMARK   78  A    between atoms: _183  and  _185
REMARK   79  A    between atoms: _185  and  _186
REMARK   80  A    between atoms: _185  and  _188
REMARK   81  A    between atoms: _188  and  _189
REMARK   82  A    between atoms: _194  and  _195
REMARK   83  A    between atoms: _197  and  _199
REMARK   84  A    between atoms: _199  and  _200
REMARK   85  A    between atoms: _199  and  _202
REMARK   86  A    between atoms: _204  and  _206
REMARK   87  A    between atoms: _206  and  _207
REMARK   88  A    between atoms: _209  and  _211
REMARK   89  A    between atoms: _211  and  _212
REMARK   90  A    between atoms: _211  and  _214
REMARK   91  A    between atoms: _214  and  _215
REMARK   92  A    between atoms: _219  and  CO_323
REMARK   93  A    between atoms: _220  and  _222
REMARK   94  A    between atoms: _222  and  _223
REMARK   95  A    between atoms: _222  and  _225
REMARK   96  A    between atoms: _225  and  _226
REMARK   97  A    between atoms: _232  and  _234
REMARK   98  A    between atoms: _234  and  _235
REMARK   99  A    between atoms: _234  and  _237
REMARK  100  A    between atoms: _237  and  _238
REMARK  101  A    between atoms: _243  and  _245
REMARK  102  A    between atoms: _245  and  _246
REMARK  103  A    between atoms: _245  and  _248
REMARK  104  A    between atoms: _248  and  _249
REMARK  105  A    between atoms: _249  and  _250
REMARK  106  A    between atoms: _255  and  _257
REMARK  107  A    between atoms: _257  and  _258
REMARK  108  A    between atoms: _257  and  _260
REMARK  109  A    between atoms: _260  and  _261
REMARK  110  A    between atoms: _264  and  _266
REMARK  111  A    between atoms: _266  and  _267
REMARK  112  A    between atoms: _266  and  _269
REMARK  113  A    between atoms: _269  and  _270
REMARK  114  A    between atoms: _270  and  _271
REMARK  115  A    between atoms: _271  and  _273
REMARK  116  A    between atoms: _273  and  CO_323
REMARK  117  A    between atoms: _274  and  _276
REMARK  118  A    between atoms: _276  and  _277
REMARK  119  A    between atoms: _276  and  _279
REMARK  120  A    between atoms: _279  and  _280
REMARK  121  A    between atoms: _280  and  _281
REMARK  122  A    between atoms: _283  and  _285
REMARK  123  A    between atoms: _285  and  _286
REMARK  124  A    between atoms: _285  and  _288
REMARK  125  A    between atoms: _288  and  _289
REMARK  126  A    between atoms: _299  and  _301
REMARK  127  A    between atoms: _301  and  _302
REMARK  128  A    between atoms: _301  and  _304
REMARK  129  A    between atoms: _305  and  _306
REMARK  130  A    between atoms: _311  and  _313
REMARK  131  A    between atoms: _313  and  _314
REMARK  132  A    between atoms: _313  and  _316
REMARK  133  A    between atoms: _316  and  _317
REMARK  134  A    between atoms: _317  and  _318
REMARK                            x       y       z     vdW  Elec       q    Type
REMARK                         _______ _______ _______ _____ _____    ______ ____
ROOT
ATOM      1  CG  TRP A   1      30.554  -9.316  11.981  0.00  0.00    -0.002 A 
ATOM      2  CD1 TRP A   1      31.856  -9.573  12.327  0.00  0.00    +0.068 A 
ATOM      3  NE1 TRP A   1      32.388 -10.534  11.507  0.00  0.00    -0.352 N 
ATOM      4  HE1 TRP A   1      33.357 -10.907  11.561  0.00  0.00    +0.166 HD
ATOM      5  CE2 TRP A   1      31.434 -10.921  10.606  0.00  0.00    +0.056 A 
ATOM      6  CZ2 TRP A   1      31.517 -11.866   9.584  0.00  0.00    +0.017 A 
ATOM      7  CH2 TRP A   1      30.395 -12.052   8.826  0.00  0.00    +0.001 A 
ATOM      8  CZ3 TRP A   1      29.220 -11.331   9.068  0.00  0.00    +0.000 A 
ATOM      9  CE3 TRP A   1      29.134 -10.395  10.079  0.00  0.00    +0.001 A 
ATOM     10  CD2 TRP A   1      30.264 -10.176  10.878  0.00  0.00    +0.013 A 
ENDROOT
BRANCH   1  11
ATOM     11  CB  TRP A   1      29.672  -8.319  12.668  0.00  0.00    +0.053 C 
BRANCH  11  12
ATOM     12  CA  TRP A   1      29.180  -7.170  11.760  0.00  0.00    +0.137 C 
BRANCH  12  13
ATOM     13  N   TRP A   1      30.182  -6.204  11.384  0.00  0.00    -0.239 NA
ATOM     14  H   TRP A   1      31.038  -6.636  10.982  0.00  0.00    +0.142 HD
ENDBRANCH  12  13
BRANCH  12  15
ATOM     15  C   TRP A   1      27.977  -6.541  12.475  0.00  0.00    +0.224 C 
ATOM     16  O   TRP A   1      26.840  -6.773  12.062  0.00  0.00    -0.287 OA
ENDBRANCH  12  15
ENDBRANCH  11  12
ENDBRANCH   1  11
TORSDOF 4
REMARK  Name = ../refined-set-2016/1yvm/1yvm_pocket.pdb
REMARK  134 active torsions:
REMARK  status: ('A' for Active; 'I' for Inactive)
REMARK    1  A    between atoms: _1  and  _3
REMARK    2  A    between atoms: _3  and  _4
REMARK    3  A    between atoms: _3  and  _6
REMARK    4  A    between atoms: _6  and  _7
REMARK    5  A    between atoms: _9  and  _11
REMARK    6  A    between atoms: _11  and  _12
REMARK    7  A    between atoms: _15  and  _17
REMARK    8  A    between atoms: _17  and  _18
REMARK    9  A    between atoms: _17  and  _20
REMARK   10  A    between atoms: _22  and  _24
REMARK   11  A    between atoms: _24  and  _25
REMARK   12  A    between atoms: _24  and  _27
REMARK   13  A    between atoms: _27  and  _28
REMARK   14  A    between atoms: _31  and  _33
REMARK   15  A    between atoms: _33  and  _34
REMARK   16  A    between atoms: _36  and  _38
REMARK   17  A    between atoms: _38  and  _39
REMARK   18  A    between atoms: _38  and  _41
REMARK   19  A    between atoms: _41  and  _42
REMARK   20  A    between atoms: _47  and  _48
REMARK   21  A    between atoms: _50  and  _52
REMARK   22  A    between atoms: _52  and  _53
REMARK   23  A    between atoms: _52  and  _55
REMARK   24  A    between atoms: _55  and  _56
REMARK   25  A    between atoms: _61  and  _63
REMARK   26  A    between atoms: _63  and  _64
REMARK   27  A    between atoms: _66  and  _68
REMARK   28  A    between atoms: _68  and  _69
REMARK   29  A    between atoms: _68  and  _71
REMARK   30  A    between atoms: _71  and  _72
REMARK   31  A    between atoms: _77  and  _78
REMARK   32  A    between atoms: _81  and  _82
REMARK   33  A    between atoms: _87  and  _89
REMARK   34  A    between atoms: _89  and  _90
REMARK   35  A    between atoms: _89  and  _92
REMARK   36  A    between atoms: _92  and  _93
REMARK   37  A    between atoms: _93  and  _94
REMARK   38  A    between atoms: _94  and  _95
REMARK   39  A    between atoms: _95  and  _96
REMARK   40  A    between atoms: _100  and  _102
REMARK   41  A    between atoms: _102  and  _103
REMARK   42  A    between atoms: _102  and  _105
REMARK   43  A    between atoms: _105  and  _106
REMARK   44  A    between atoms: _108  and  _110
REMARK   45  A    between atoms: _110  and  _111
REMARK   46  A    between atoms: _110  and  _113
REMARK   47  A    between atoms: _116  and  _118
REMARK   48  A    between atoms: _118  and  _119
REMARK   49  A    between atoms: _118  and  _121
REMARK   50  A    between atoms: _123  and  _125
REMARK   51  A    between atoms: _125  and  _126
REMARK   52  A    between atoms: _125  and  _128
REMARK   53  A    between atoms: _130  and  _132
REMARK   54  A    between atoms: _132  and  _133
REMARK   55  A    between atoms: _132  and  _135
REMARK   56  A    between atoms: _135  and  _136
REMARK   57  A    between atoms: _140  and  CO_321
REMARK   58  A    between atoms: _141  and  _143
REMARK   59  A    between atoms: _143  and  _144
REMARK   60  A    between atoms: _146  and  _148
REMARK   61  A    between atoms: _148  and  _149
REMARK   62  A    between atoms: _148  and  _151
REMARK   63  A    between atoms: _151  and  _152
REMARK   64  A    between atoms: _152  and  _153
REMARK   65  A    between atoms: _153  and  CO_322
REMARK   66  A    between atoms: _155  and  _157
REMARK   67  A    between atoms: _157  and  _158
REMARK   68  A    between atoms: _157  and  _160
REMARK   69  A    between atoms: _160  and  _161
REMARK   70  A    between atoms: _164  and  _166
REMARK   71  A    between atoms: _166  and  _167
REMARK   72  A    between atoms: _166  and  _169
REMARK   73  A    between atoms: _173  and  _175
REMARK   74  A    between atoms: _175  and  _176
REMARK   75  A    between atoms: _175  and  _178
REMARK   76  A    between atoms: _178  and  _179
REMARK   77  A    between atoms: _179  and  _180
REMARK   78  A    between atoms: _183  and  _185
REMARK   79  A    between atoms: _185  and  _186
REMARK   80  A    between atoms: _185  and  _188
REMARK   81  A    between atoms: _188  and  _189
REMARK   82  A    between atoms: _194  and  _195
REMARK   83  A    between atoms: _197  and  _199
REMARK   84  A    between atoms: _199  and  _200
REMARK   85  A    between atoms: _199  and  _202
REMARK   86  A    between atoms: _204  and  _206
REMARK   87  A    between atoms: _206  and  _207
REMARK   88  A    between atoms: _209  and  _211
REMARK   89  A    between atoms: _211  and  _212
REMARK   90  A    between atoms: _211  and  _214
REMARK   91  A    between atoms: _214  and  _215
REMARK   92  A    between atoms: _219  and  CO_323
REMARK   93  A    between atoms: _220  and  _222
REMARK   94  A    between atoms: _222  and  _223
REMARK   95  A    between atoms: _222  and  _225
REMARK   96  A    between atoms: _225  and  _226
REMARK   97  A    between atoms: _232  and  _234
REMARK   98  A    between atoms: _234  and  _235
REMARK   99  A    between atoms: _234  and  _237
REMARK  100  A    between atoms: _237  and  _238
REMARK  101  A    between atoms: _243  and  _245
REMARK  102  A    between atoms: _245  and  _246
REMARK  103  A    between atoms: _245  and  _248
REMARK  104  A    between atoms: _248  and  _249
REMARK  105  A    between atoms: _249  and  _250
REMARK  106  A    between atoms: _255  and  _257
REMARK  107  A    between atoms: _257  and  _258
REMARK  108  A    between atoms: _257  and  _260
REMARK  109  A    between atoms: _260  and  _261
REMARK  110  A    between atoms: _264  and  _266
REMARK  111  A    between atoms: _266  and  _267
REMARK  112  A    between atoms: _266  and  _269
REMARK  113  A    between atoms: _269  and  _270
REMARK  114  A    between atoms: _270  and  _271
REMARK  115  A    between atoms: _271  and  _273
REMARK  116  A    between atoms: _273  and  CO_323
REMARK  117  A    between atoms: _274  and  _276
REMARK  118  A    between atoms: _276  and  _277
REMARK  119  A    between atoms: _276  and  _279
REMARK  120  A    between atoms: _279  and  _280
REMARK  121  A    between atoms: _280  and  _281
REMARK  122  A    between atoms: _283  and  _285
REMARK  123  A    between atoms: _285  and  _286
REMARK  124  A    between atoms: _285  and  _288
REMARK  125  A    between atoms: _288  and  _289
REMARK  126  A    between atoms: _299  and  _301
REMARK  127  A    between atoms: _301  and  _302
REMARK  128  A    between atoms: _301  and  _304
REMARK  129  A    between atoms: _305  and  _306
REMARK  130  A    between atoms: _311  and  _313
REMARK  131  A    between atoms: _313  and  _314
REMARK  132  A    between atoms: _313  and  _316
REMARK  133  A    between atoms: _316  and  _317
REMARK  134  A    between atoms: _317  and  _318
REMARK                            x       y       z     vdW  Elec       q    Type
REMARK                         _______ _______ _______ _____ _____    ______ ____
ROOT
ATOM      1  CB  GLN A   1      14.288  -8.647  14.110  0.00  0.00    +0.003 C 
ATOM      2  CG  GLN A   1      14.294  -9.423  12.797  0.00  0.00    +0.055 C 
ENDROOT
BRANCH   2   3
ATOM      3  CD  GLN A   1      15.620  -9.464  12.081  0.00  0.00    +0.243 C 
ATOM      4  OE1 GLN A   1      16.686  -9.594  12.673  0.00  0.00    -0.270 OA
ATOM      5  NE2 GLN A   1      15.618  -9.335  10.753  0.00  0.00    -0.325 N 
ATOM      6 HE21 GLN A   1      14.719  -9.224  10.243  0.00  0.00    +0.145 HD
ATOM      7 HE22 GLN A   1      16.516  -9.345  10.228  0.00  0.00    +0.145 HD
ENDBRANCH   2   3
BRANCH   1   8
ATOM      8  CA  GLN A   1      12.941  -8.498  14.798  0.00  0.00    +0.155 C 
BRANCH   8   9
ATOM      9  N   GLN A   1      13.143  -7.772  16.054  0.00  0.00    -0.235 NA
ATOM     10  H   GLN A   1      13.361  -8.309  16.918  0.00  0.00    +0.142 HD
ENDBRANCH   8   9
BRANCH   8  11
ATOM     11  C   GLN A   1      12.327  -9.881  14.998  0.00  0.00    +0.229 C 
ATOM     12  O   GLN A   1      12.615 -10.536  15.989  0.00  0.00    -0.286 OA
ENDBRANCH   8  11
ENDBRANCH   1   8
TORSDOF 4
REMARK  Name = ../refined-set-2016/1yvm/1yvm_pocket.pdb
REMARK  134 active torsions:
REMARK  status: ('A' for Active; 'I' for Inactive)
REMARK    1  A    between atoms: _1  and  _3
REMARK    2  A    between atoms: _3  and  _4
REMARK    3  A    between atoms: _3  and  _6
REMARK    4  A    between atoms: _6  and  _7
REMARK    5  A    between atoms: _9  and  _11
REMARK    6  A    between atoms: _11  and  _12
REMARK    7  A    between atoms: _15  and  _17
REMARK    8  A    between atoms: _17  and  _18
REMARK    9  A    between atoms: _17  and  _20
REMARK   10  A    between atoms: _22  and  _24
REMARK   11  A    between atoms: _24  and  _25
REMARK   12  A    between atoms: _24  and  _27
REMARK   13  A    between atoms: _27  and  _28
REMARK   14  A    between atoms: _31  and  _33
REMARK   15  A    between atoms: _33  and  _34
REMARK   16  A    between atoms: _36  and  _38
REMARK   17  A    between atoms: _38  and  _39
REMARK   18  A    between atoms: _38  and  _41
REMARK   19  A    between atoms: _41  and  _42
REMARK   20  A    between atoms: _47  and  _48
REMARK   21  A    between atoms: _50  and  _52
REMARK   22  A    between atoms: _52  and  _53
REMARK   23  A    between atoms: _52  and  _55
REMARK   24  A    between atoms: _55  and  _56
REMARK   25  A    between atoms: _61  and  _63
REMARK   26  A    between atoms: _63  and  _64
REMARK   27  A    between atoms: _66  and  _68
REMARK   28  A    between atoms: _68  and  _69
REMARK   29  A    between atoms: _68  and  _71
REMARK   30  A    between atoms: _71  and  _72
REMARK   31  A    between atoms: _77  and  _78
REMARK   32  A    between atoms: _81  and  _82
REMARK   33  A    between atoms: _87  and  _89
REMARK   34  A    between atoms: _89  and  _90
REMARK   35  A    between atoms: _89  and  _92
REMARK   36  A    between atoms: _92  and  _93
REMARK   37  A    between atoms: _93  and  _94
REMARK   38  A    between atoms: _94  and  _95
REMARK   39  A    between atoms: _95  and  _96
REMARK   40  A    between atoms: _100  and  _102
REMARK   41  A    between atoms: _102  and  _103
REMARK   42  A    between atoms: _102  and  _105
REMARK   43  A    between atoms: _105  and  _106
REMARK   44  A    between atoms: _108  and  _110
REMARK   45  A    between atoms: _110  and  _111
REMARK   46  A    between atoms: _110  and  _113
REMARK   47  A    between atoms: _116  and  _118
REMARK   48  A    between atoms: _118  and  _119
REMARK   49  A    between atoms: _118  and  _121
REMARK   50  A    between atoms: _123  and  _125
REMARK   51  A    between atoms: _125  and  _126
REMARK   52  A    between atoms: _125  and  _128
REMARK   53  A    between atoms: _130  and  _132
REMARK   54  A    between atoms: _132  and  _133
REMARK   55  A    between atoms: _132  and  _135
REMARK   56  A    between atoms: _135  and  _136
REMARK   57  A    between atoms: _140  and  CO_321
REMARK   58  A    between atoms: _141  and  _143
REMARK   59  A    between atoms: _143  and  _144
REMARK   60  A    between atoms: _146  and  _148
REMARK   61  A    between atoms: _148  and  _149
REMARK   62  A    between atoms: _148  and  _151
REMARK   63  A    between atoms: _151  and  _152
REMARK   64  A    between atoms: _152  and  _153
REMARK   65  A    between atoms: _153  and  CO_322
REMARK   66  A    between atoms: _155  and  _157
REMARK   67  A    between atoms: _157  and  _158
REMARK   68  A    between atoms: _157  and  _160
REMARK   69  A    between atoms: _160  and  _161
REMARK   70  A    between atoms: _164  and  _166
REMARK   71  A    between atoms: _166  and  _167
REMARK   72  A    between atoms: _166  and  _169
REMARK   73  A    between atoms: _173  and  _175
REMARK   74  A    between atoms: _175  and  _176
REMARK   75  A    between atoms: _175  and  _178
REMARK   76  A    between atoms: _178  and  _179
REMARK   77  A    between atoms: _179  and  _180
REMARK   78  A    between atoms: _183  and  _185
REMARK   79  A    between atoms: _185  and  _186
REMARK   80  A    between atoms: _185  and  _188
REMARK   81  A    between atoms: _188  and  _189
REMARK   82  A    between atoms: _194  and  _195
REMARK   83  A    between atoms: _197  and  _199
REMARK   84  A    between atoms: _199  and  _200
REMARK   85  A    between atoms: _199  and  _202
REMARK   86  A    between atoms: _204  and  _206
REMARK   87  A    between atoms: _206  and  _207
REMARK   88  A    between atoms: _209  and  _211
REMARK   89  A    between atoms: _211  and  _212
REMARK   90  A    between atoms: _211  and  _214
REMARK   91  A    between atoms: _214  and  _215
REMARK   92  A    between atoms: _219  and  CO_323
REMARK   93  A    between atoms: _220  and  _222
REMARK   94  A    between atoms: _222  and  _223
REMARK   95  A    between atoms: _222  and  _225
REMARK   96  A    between atoms: _225  and  _226
REMARK   97  A    between atoms: _232  and  _234
REMARK   98  A    between atoms: _234  and  _235
REMARK   99  A    between atoms: _234  and  _237
REMARK  100  A    between atoms: _237  and  _238
REMARK  101  A    between atoms: _243  and  _245
REMARK  102  A    between atoms: _245  and  _246
REMARK  103  A    between atoms: _245  and  _248
REMARK  104  A    between atoms: _248  and  _249
REMARK  105  A    between atoms: _249  and  _250
REMARK  106  A    between atoms: _255  and  _257
REMARK  107  A    between atoms: _257  and  _258
REMARK  108  A    between atoms: _257  and  _260
REMARK  109  A    between atoms: _260  and  _261
REMARK  110  A    between atoms: _264  and  _266
REMARK  111  A    between atoms: _266  and  _267
REMARK  112  A    between atoms: _266  and  _269
REMARK  113  A    between atoms: _269  and  _270
REMARK  114  A    between atoms: _270  and  _271
REMARK  115  A    between atoms: _271  and  _273
REMARK  116  A    between atoms: _273  and  CO_323
REMARK  117  A    between atoms: _274  and  _276
REMARK  118  A    between atoms: _276  and  _277
REMARK  119  A    between atoms: _276  and  _279
REMARK  120  A    between atoms: _279  and  _280
REMARK  121  A    between atoms: _280  and  _281
REMARK  122  A    between atoms: _283  and  _285
REMARK  123  A    between atoms: _285  and  _286
REMARK  124  A    between atoms: _285  and  _288
REMARK  125  A    between atoms: _288  and  _289
REMARK  126  A    between atoms: _299  and  _301
REMARK  127  A    between atoms: _301  and  _302
REMARK  128  A    between atoms: _301  and  _304
REMARK  129  A    between atoms: _305  and  _306
REMARK  130  A    between atoms: _311  and  _313
REMARK  131  A    between atoms: _313  and  _314
REMARK  132  A    between atoms: _313  and  _316
REMARK  133  A    between atoms: _316  and  _317
REMARK  134  A    between atoms: _317  and  _318
REMARK                            x       y       z     vdW  Elec       q    Type
REMARK                         _______ _______ _______ _____ _____    ______ ____
ROOT
ATOM      1  O   HOH     1      26.724 -21.481   4.813  0.00  0.00    +0.000 OA
ENDROOT
TORSDOF 0
REMARK  Name = ../refined-set-2016/1yvm/1yvm_pocket.pdb
REMARK  134 active torsions:
REMARK  status: ('A' for Active; 'I' for Inactive)
REMARK    1  A    between atoms: _1  and  _3
REMARK    2  A    between atoms: _3  and  _4
REMARK    3  A    between atoms: _3  and  _6
REMARK    4  A    between atoms: _6  and  _7
REMARK    5  A    between atoms: _9  and  _11
REMARK    6  A    between atoms: _11  and  _12
REMARK    7  A    between atoms: _15  and  _17
REMARK    8  A    between atoms: _17  and  _18
REMARK    9  A    between atoms: _17  and  _20
REMARK   10  A    between atoms: _22  and  _24
REMARK   11  A    between atoms: _24  and  _25
REMARK   12  A    between atoms: _24  and  _27
REMARK   13  A    between atoms: _27  and  _28
REMARK   14  A    between atoms: _31  and  _33
REMARK   15  A    between atoms: _33  and  _34
REMARK   16  A    between atoms: _36  and  _38
REMARK   17  A    between atoms: _38  and  _39
REMARK   18  A    between atoms: _38  and  _41
REMARK   19  A    between atoms: _41  and  _42
REMARK   20  A    between atoms: _47  and  _48
REMARK   21  A    between atoms: _50  and  _52
REMARK   22  A    between atoms: _52  and  _53
REMARK   23  A    between atoms: _52  and  _55
REMARK   24  A    between atoms: _55  and  _56
REMARK   25  A    between atoms: _61  and  _63
REMARK   26  A    between atoms: _63  and  _64
REMARK   27  A    between atoms: _66  and  _68
REMARK   28  A    between atoms: _68  and  _69
REMARK   29  A    between atoms: _68  and  _71
REMARK   30  A    between atoms: _71  and  _72
REMARK   31  A    between atoms: _77  and  _78
REMARK   32  A    between atoms: _81  and  _82
REMARK   33  A    between atoms: _87  and  _89
REMARK   34  A    between atoms: _89  and  _90
REMARK   35  A    between atoms: _89  and  _92
REMARK   36  A    between atoms: _92  and  _93
REMARK   37  A    between atoms: _93  and  _94
REMARK   38  A    between atoms: _94  and  _95
REMARK   39  A    between atoms: _95  and  _96
REMARK   40  A    between atoms: _100  and  _102
REMARK   41  A    between atoms: _102  and  _103
REMARK   42  A    between atoms: _102  and  _105
REMARK   43  A    between atoms: _105  and  _106
REMARK   44  A    between atoms: _108  and  _110
REMARK   45  A    between atoms: _110  and  _111
REMARK   46  A    between atoms: _110  and  _113
REMARK   47  A    between atoms: _116  and  _118
REMARK   48  A    between atoms: _118  and  _119
REMARK   49  A    between atoms: _118  and  _121
REMARK   50  A    between atoms: _123  and  _125
REMARK   51  A    between atoms: _125  and  _126
REMARK   52  A    between atoms: _125  and  _128
REMARK   53  A    between atoms: _130  and  _132
REMARK   54  A    between atoms: _132  and  _133
REMARK   55  A    between atoms: _132  and  _135
REMARK   56  A    between atoms: _135  and  _136
REMARK   57  A    between atoms: _140  and  CO_321
REMARK   58  A    between atoms: _141  and  _143
REMARK   59  A    between atoms: _143  and  _144
REMARK   60  A    between atoms: _146  and  _148
REMARK   61  A    between atoms: _148  and  _149
REMARK   62  A    between atoms: _148  and  _151
REMARK   63  A    between atoms: _151  and  _152
REMARK   64  A    between atoms: _152  and  _153
REMARK   65  A    between atoms: _153  and  CO_322
REMARK   66  A    between atoms: _155  and  _157
REMARK   67  A    between atoms: _157  and  _158
REMARK   68  A    between atoms: _157  and  _160
REMARK   69  A    between atoms: _160  and  _161
REMARK   70  A    between atoms: _164  and  _166
REMARK   71  A    between atoms: _166  and  _167
REMARK   72  A    between atoms: _166  and  _169
REMARK   73  A    between atoms: _173  and  _175
REMARK   74  A    between atoms: _175  and  _176
REMARK   75  A    between atoms: _175  and  _178
REMARK   76  A    between atoms: _178  and  _179
REMARK   77  A    between atoms: _179  and  _180
REMARK   78  A    between atoms: _183  and  _185
REMARK   79  A    between atoms: _185  and  _186
REMARK   80  A    between atoms: _185  and  _188
REMARK   81  A    between atoms: _188  and  _189
REMARK   82  A    between atoms: _194  and  _195
REMARK   83  A    between atoms: _197  and  _199
REMARK   84  A    between atoms: _199  and  _200
REMARK   85  A    between atoms: _199  and  _202
REMARK   86  A    between atoms: _204  and  _206
REMARK   87  A    between atoms: _206  and  _207
REMARK   88  A    between atoms: _209  and  _211
REMARK   89  A    between atoms: _211  and  _212
REMARK   90  A    between atoms: _211  and  _214
REMARK   91  A    between atoms: _214  and  _215
REMARK   92  A    between atoms: _219  and  CO_323
REMARK   93  A    between atoms: _220  and  _222
REMARK   94  A    between atoms: _222  and  _223
REMARK   95  A    between atoms: _222  and  _225
REMARK   96  A    between atoms: _225  and  _226
REMARK   97  A    between atoms: _232  and  _234
REMARK   98  A    between atoms: _234  and  _235
REMARK   99  A    between atoms: _234  and  _237
REMARK  100  A    between atoms: _237  and  _238
REMARK  101  A    between atoms: _243  and  _245
REMARK  102  A    between atoms: _245  and  _246
REMARK  103  A    between atoms: _245  and  _248
REMARK  104  A    between atoms: _248  and  _249
REMARK  105  A    between atoms: _249  and  _250
REMARK  106  A    between atoms: _255  and  _257
REMARK  107  A    between atoms: _257  and  _258
REMARK  108  A    between atoms: _257  and  _260
REMARK  109  A    between atoms: _260  and  _261
REMARK  110  A    between atoms: _264  and  _266
REMARK  111  A    between atoms: _266  and  _267
REMARK  112  A    between atoms: _266  and  _269
REMARK  113  A    between atoms: _269  and  _270
REMARK  114  A    between atoms: _270  and  _271
REMARK  115  A    between atoms: _271  and  _273
REMARK  116  A    between atoms: _273  and  CO_323
REMARK  117  A    between atoms: _274  and  _276
REMARK  118  A    between atoms: _276  and  _277
REMARK  119  A    between atoms: _276  and  _279
REMARK  120  A    between atoms: _279  and  _280
REMARK  121  A    between atoms: _280  and  _281
REMARK  122  A    between atoms: _283  and  _285
REMARK  123  A    between atoms: _285  and  _286
REMARK  124  A    between atoms: _285  and  _288
REMARK  125  A    between atoms: _288  and  _289
REMARK  126  A    between atoms: _299  and  _301
REMARK  127  A    between atoms: _301  and  _302
REMARK  128  A    between atoms: _301  and  _304
REMARK  129  A    between atoms: _305  and  _306
REMARK  130  A    between atoms: _311  and  _313
REMARK  131  A    between atoms: _313  and  _314
REMARK  132  A    between atoms: _313  and  _316
REMARK  133  A    between atoms: _316  and  _317
REMARK  134  A    between atoms: _317  and  _318
REMARK                            x       y       z     vdW  Elec       q    Type
REMARK                         _______ _______ _______ _____ _____    ______ ____
ROOT
ATOM      1  O   HOH     1      21.918 -21.174  12.527  0.00  0.00    +0.000 OA
ENDROOT
TORSDOF 0
REMARK  Name = ../refined-set-2016/1yvm/1yvm_pocket.pdb
REMARK  134 active torsions:
REMARK  status: ('A' for Active; 'I' for Inactive)
REMARK    1  A    between atoms: _1  and  _3
REMARK    2  A    between atoms: _3  and  _4
REMARK    3  A    between atoms: _3  and  _6
REMARK    4  A    between atoms: _6  and  _7
REMARK    5  A    between atoms: _9  and  _11
REMARK    6  A    between atoms: _11  and  _12
REMARK    7  A    between atoms: _15  and  _17
REMARK    8  A    between atoms: _17  and  _18
REMARK    9  A    between atoms: _17  and  _20
REMARK   10  A    between atoms: _22  and  _24
REMARK   11  A    between atoms: _24  and  _25
REMARK   12  A    between atoms: _24  and  _27
REMARK   13  A    between atoms: _27  and  _28
REMARK   14  A    between atoms: _31  and  _33
REMARK   15  A    between atoms: _33  and  _34
REMARK   16  A    between atoms: _36  and  _38
REMARK   17  A    between atoms: _38  and  _39
REMARK   18  A    between atoms: _38  and  _41
REMARK   19  A    between atoms: _41  and  _42
REMARK   20  A    between atoms: _47  and  _48
REMARK   21  A    between atoms: _50  and  _52
REMARK   22  A    between atoms: _52  and  _53
REMARK   23  A    between atoms: _52  and  _55
REMARK   24  A    between atoms: _55  and  _56
REMARK   25  A    between atoms: _61  and  _63
REMARK   26  A    between atoms: _63  and  _64
REMARK   27  A    between atoms: _66  and  _68
REMARK   28  A    between atoms: _68  and  _69
REMARK   29  A    between atoms: _68  and  _71
REMARK   30  A    between atoms: _71  and  _72
REMARK   31  A    between atoms: _77  and  _78
REMARK   32  A    between atoms: _81  and  _82
REMARK   33  A    between atoms: _87  and  _89
REMARK   34  A    between atoms: _89  and  _90
REMARK   35  A    between atoms: _89  and  _92
REMARK   36  A    between atoms: _92  and  _93
REMARK   37  A    between atoms: _93  and  _94
REMARK   38  A    between atoms: _94  and  _95
REMARK   39  A    between atoms: _95  and  _96
REMARK   40  A    between atoms: _100  and  _102
REMARK   41  A    between atoms: _102  and  _103
REMARK   42  A    between atoms: _102  and  _105
REMARK   43  A    between atoms: _105  and  _106
REMARK   44  A    between atoms: _108  and  _110
REMARK   45  A    between atoms: _110  and  _111
REMARK   46  A    between atoms: _110  and  _113
REMARK   47  A    between atoms: _116  and  _118
REMARK   48  A    between atoms: _118  and  _119
REMARK   49  A    between atoms: _118  and  _121
REMARK   50  A    between atoms: _123  and  _125
REMARK   51  A    between atoms: _125  and  _126
REMARK   52  A    between atoms: _125  and  _128
REMARK   53  A    between atoms: _130  and  _132
REMARK   54  A    between atoms: _132  and  _133
REMARK   55  A    between atoms: _132  and  _135
REMARK   56  A    between atoms: _135  and  _136
REMARK   57  A    between atoms: _140  and  CO_321
REMARK   58  A    between atoms: _141  and  _143
REMARK   59  A    between atoms: _143  and  _144
REMARK   60  A    between atoms: _146  and  _148
REMARK   61  A    between atoms: _148  and  _149
REMARK   62  A    between atoms: _148  and  _151
REMARK   63  A    between atoms: _151  and  _152
REMARK   64  A    between atoms: _152  and  _153
REMARK   65  A    between atoms: _153  and  CO_322
REMARK   66  A    between atoms: _155  and  _157
REMARK   67  A    between atoms: _157  and  _158
REMARK   68  A    between atoms: _157  and  _160
REMARK   69  A    between atoms: _160  and  _161
REMARK   70  A    between atoms: _164  and  _166
REMARK   71  A    between atoms: _166  and  _167
REMARK   72  A    between atoms: _166  and  _169
REMARK   73  A    between atoms: _173  and  _175
REMARK   74  A    between atoms: _175  and  _176
REMARK   75  A    between atoms: _175  and  _178
REMARK   76  A    between atoms: _178  and  _179
REMARK   77  A    between atoms: _179  and  _180
REMARK   78  A    between atoms: _183  and  _185
REMARK   79  A    between atoms: _185  and  _186
REMARK   80  A    between atoms: _185  and  _188
REMARK   81  A    between atoms: _188  and  _189
REMARK   82  A    between atoms: _194  and  _195
REMARK   83  A    between atoms: _197  and  _199
REMARK   84  A    between atoms: _199  and  _200
REMARK   85  A    between atoms: _199  and  _202
REMARK   86  A    between atoms: _204  and  _206
REMARK   87  A    between atoms: _206  and  _207
REMARK   88  A    between atoms: _209  and  _211
REMARK   89  A    between atoms: _211  and  _212
REMARK   90  A    between atoms: _211  and  _214
REMARK   91  A    between atoms: _214  and  _215
REMARK   92  A    between atoms: _219  and  CO_323
REMARK   93  A    between atoms: _220  and  _222
REMARK   94  A    between atoms: _222  and  _223
REMARK   95  A    between atoms: _222  and  _225
REMARK   96  A    between atoms: _225  and  _226
REMARK   97  A    between atoms: _232  and  _234
REMARK   98  A    between atoms: _234  and  _235
REMARK   99  A    between atoms: _234  and  _237
REMARK  100  A    between atoms: _237  and  _238
REMARK  101  A    between atoms: _243  and  _245
REMARK  102  A    between atoms: _245  and  _246
REMARK  103  A    between atoms: _245  and  _248
REMARK  104  A    between atoms: _248  and  _249
REMARK  105  A    between atoms: _249  and  _250
REMARK  106  A    between atoms: _255  and  _257
REMARK  107  A    between atoms: _257  and  _258
REMARK  108  A    between atoms: _257  and  _260
REMARK  109  A    between atoms: _260  and  _261
REMARK  110  A    between atoms: _264  and  _266
REMARK  111  A    between atoms: _266  and  _267
REMARK  112  A    between atoms: _266  and  _269
REMARK  113  A    between atoms: _269  and  _270
REMARK  114  A    between atoms: _270  and  _271
REMARK  115  A    between atoms: _271  and  _273
REMARK  116  A    between atoms: _273  and  CO_323
REMARK  117  A    between atoms: _274  and  _276
REMARK  118  A    between atoms: _276  and  _277
REMARK  119  A    between atoms: _276  and  _279
REMARK  120  A    between atoms: _279  and  _280
REMARK  121  A    between atoms: _280  and  _281
REMARK  122  A    between atoms: _283  and  _285
REMARK  123  A    between atoms: _285  and  _286
REMARK  124  A    between atoms: _285  and  _288
REMARK  125  A    between atoms: _288  and  _289
REMARK  126  A    between atoms: _299  and  _301
REMARK  127  A    between atoms: _301  and  _302
REMARK  128  A    between atoms: _301  and  _304
REMARK  129  A    between atoms: _305  and  _306
REMARK  130  A    between atoms: _311  and  _313
REMARK  131  A    between atoms: _313  and  _314
REMARK  132  A    between atoms: _313  and  _316
REMARK  133  A    between atoms: _316  and  _317
REMARK  134  A    between atoms: _317  and  _318
REMARK                            x       y       z     vdW  Elec       q    Type
REMARK                         _______ _______ _______ _____ _____    ______ ____
ROOT
ATOM      1  O   HOH     1      20.825 -10.952  13.402  0.00  0.00    +0.000 OA
ENDROOT
TORSDOF 0
REMARK  Name = ../refined-set-2016/1yvm/1yvm_pocket.pdb
REMARK  134 active torsions:
REMARK  status: ('A' for Active; 'I' for Inactive)
REMARK    1  A    between atoms: _1  and  _3
REMARK    2  A    between atoms: _3  and  _4
REMARK    3  A    between atoms: _3  and  _6
REMARK    4  A    between atoms: _6  and  _7
REMARK    5  A    between atoms: _9  and  _11
REMARK    6  A    between atoms: _11  and  _12
REMARK    7  A    between atoms: _15  and  _17
REMARK    8  A    between atoms: _17  and  _18
REMARK    9  A    between atoms: _17  and  _20
REMARK   10  A    between atoms: _22  and  _24
REMARK   11  A    between atoms: _24  and  _25
REMARK   12  A    between atoms: _24  and  _27
REMARK   13  A    between atoms: _27  and  _28
REMARK   14  A    between atoms: _31  and  _33
REMARK   15  A    between atoms: _33  and  _34
REMARK   16  A    between atoms: _36  and  _38
REMARK   17  A    between atoms: _38  and  _39
REMARK   18  A    between atoms: _38  and  _41
REMARK   19  A    between atoms: _41  and  _42
REMARK   20  A    between atoms: _47  and  _48
REMARK   21  A    between atoms: _50  and  _52
REMARK   22  A    between atoms: _52  and  _53
REMARK   23  A    between atoms: _52  and  _55
REMARK   24  A    between atoms: _55  and  _56
REMARK   25  A    between atoms: _61  and  _63
REMARK   26  A    between atoms: _63  and  _64
REMARK   27  A    between atoms: _66  and  _68
REMARK   28  A    between atoms: _68  and  _69
REMARK   29  A    between atoms: _68  and  _71
REMARK   30  A    between atoms: _71  and  _72
REMARK   31  A    between atoms: _77  and  _78
REMARK   32  A    between atoms: _81  and  _82
REMARK   33  A    between atoms: _87  and  _89
REMARK   34  A    between atoms: _89  and  _90
REMARK   35  A    between atoms: _89  and  _92
REMARK   36  A    between atoms: _92  and  _93
REMARK   37  A    between atoms: _93  and  _94
REMARK   38  A    between atoms: _94  and  _95
REMARK   39  A    between atoms: _95  and  _96
REMARK   40  A    between atoms: _100  and  _102
REMARK   41  A    between atoms: _102  and  _103
REMARK   42  A    between atoms: _102  and  _105
REMARK   43  A    between atoms: _105  and  _106
REMARK   44  A    between atoms: _108  and  _110
REMARK   45  A    between atoms: _110  and  _111
REMARK   46  A    between atoms: _110  and  _113
REMARK   47  A    between atoms: _116  and  _118
REMARK   48  A    between atoms: _118  and  _119
REMARK   49  A    between atoms: _118  and  _121
REMARK   50  A    between atoms: _123  and  _125
REMARK   51  A    between atoms: _125  and  _126
REMARK   52  A    between atoms: _125  and  _128
REMARK   53  A    between atoms: _130  and  _132
REMARK   54  A    between atoms: _132  and  _133
REMARK   55  A    between atoms: _132  and  _135
REMARK   56  A    between atoms: _135  and  _136
REMARK   57  A    between atoms: _140  and  CO_321
REMARK   58  A    between atoms: _141  and  _143
REMARK   59  A    between atoms: _143  and  _144
REMARK   60  A    between atoms: _146  and  _148
REMARK   61  A    between atoms: _148  and  _149
REMARK   62  A    between atoms: _148  and  _151
REMARK   63  A    between atoms: _151  and  _152
REMARK   64  A    between atoms: _152  and  _153
REMARK   65  A    between atoms: _153  and  CO_322
REMARK   66  A    between atoms: _155  and  _157
REMARK   67  A    between atoms: _157  and  _158
REMARK   68  A    between atoms: _157  and  _160
REMARK   69  A    between atoms: _160  and  _161
REMARK   70  A    between atoms: _164  and  _166
REMARK   71  A    between atoms: _166  and  _167
REMARK   72  A    between atoms: _166  and  _169
REMARK   73  A    between atoms: _173  and  _175
REMARK   74  A    between atoms: _175  and  _176
REMARK   75  A    between atoms: _175  and  _178
REMARK   76  A    between atoms: _178  and  _179
REMARK   77  A    between atoms: _179  and  _180
REMARK   78  A    between atoms: _183  and  _185
REMARK   79  A    between atoms: _185  and  _186
REMARK   80  A    between atoms: _185  and  _188
REMARK   81  A    between atoms: _188  and  _189
REMARK   82  A    between atoms: _194  and  _195
REMARK   83  A    between atoms: _197  and  _199
REMARK   84  A    between atoms: _199  and  _200
REMARK   85  A    between atoms: _199  and  _202
REMARK   86  A    between atoms: _204  and  _206
REMARK   87  A    between atoms: _206  and  _207
REMARK   88  A    between atoms: _209  and  _211
REMARK   89  A    between atoms: _211  and  _212
REMARK   90  A    between atoms: _211  and  _214
REMARK   91  A    between atoms: _214  and  _215
REMARK   92  A    between atoms: _219  and  CO_323
REMARK   93  A    between atoms: _220  and  _222
REMARK   94  A    between atoms: _222  and  _223
REMARK   95  A    between atoms: _222  and  _225
REMARK   96  A    between atoms: _225  and  _226
REMARK   97  A    between atoms: _232  and  _234
REMARK   98  A    between atoms: _234  and  _235
REMARK   99  A    between atoms: _234  and  _237
REMARK  100  A    between atoms: _237  and  _238
REMARK  101  A    between atoms: _243  and  _245
REMARK  102  A    between atoms: _245  and  _246
REMARK  103  A    between atoms: _245  and  _248
REMARK  104  A    between atoms: _248  and  _249
REMARK  105  A    between atoms: _249  and  _250
REMARK  106  A    between atoms: _255  and  _257
REMARK  107  A    between atoms: _257  and  _258
REMARK  108  A    between atoms: _257  and  _260
REMARK  109  A    between atoms: _260  and  _261
REMARK  110  A    between atoms: _264  and  _266
REMARK  111  A    between atoms: _266  and  _267
REMARK  112  A    between atoms: _266  and  _269
REMARK  113  A    between atoms: _269  and  _270
REMARK  114  A    between atoms: _270  and  _271
REMARK  115  A    between atoms: _271  and  _273
REMARK  116  A    between atoms: _273  and  CO_323
REMARK  117  A    between atoms: _274  and  _276
REMARK  118  A    between atoms: _276  and  _277
REMARK  119  A    between atoms: _276  and  _279
REMARK  120  A    between atoms: _279  and  _280
REMARK  121  A    between atoms: _280  and  _281
REMARK  122  A    between atoms: _283  and  _285
REMARK  123  A    between atoms: _285  and  _286
REMARK  124  A    between atoms: _285  and  _288
REMARK  125  A    between atoms: _288  and  _289
REMARK  126  A    between atoms: _299  and  _301
REMARK  127  A    between atoms: _301  and  _302
REMARK  128  A    between atoms: _301  and  _304
REMARK  129  A    between atoms: _305  and  _306
REMARK  130  A    between atoms: _311  and  _313
REMARK  131  A    between atoms: _313  and  _314
REMARK  132  A    between atoms: _313  and  _316
REMARK  133  A    between atoms: _316  and  _317
REMARK  134  A    between atoms: _317  and  _318
REMARK                            x       y       z     vdW  Elec       q    Type
REMARK                         _______ _______ _______ _____ _____    ______ ____
ROOT
ATOM      1  O   HOH     1      21.394 -15.804  11.519  0.00  0.00    +0.000 OA
ENDROOT
TORSDOF 0
REMARK  Name = ../refined-set-2016/1yvm/1yvm_pocket.pdb
REMARK  134 active torsions:
REMARK  status: ('A' for Active; 'I' for Inactive)
REMARK    1  A    between atoms: _1  and  _3
REMARK    2  A    between atoms: _3  and  _4
REMARK    3  A    between atoms: _3  and  _6
REMARK    4  A    between atoms: _6  and  _7
REMARK    5  A    between atoms: _9  and  _11
REMARK    6  A    between atoms: _11  and  _12
REMARK    7  A    between atoms: _15  and  _17
REMARK    8  A    between atoms: _17  and  _18
REMARK    9  A    between atoms: _17  and  _20
REMARK   10  A    between atoms: _22  and  _24
REMARK   11  A    between atoms: _24  and  _25
REMARK   12  A    between atoms: _24  and  _27
REMARK   13  A    between atoms: _27  and  _28
REMARK   14  A    between atoms: _31  and  _33
REMARK   15  A    between atoms: _33  and  _34
REMARK   16  A    between atoms: _36  and  _38
REMARK   17  A    between atoms: _38  and  _39
REMARK   18  A    between atoms: _38  and  _41
REMARK   19  A    between atoms: _41  and  _42
REMARK   20  A    between atoms: _47  and  _48
REMARK   21  A    between atoms: _50  and  _52
REMARK   22  A    between atoms: _52  and  _53
REMARK   23  A    between atoms: _52  and  _55
REMARK   24  A    between atoms: _55  and  _56
REMARK   25  A    between atoms: _61  and  _63
REMARK   26  A    between atoms: _63  and  _64
REMARK   27  A    between atoms: _66  and  _68
REMARK   28  A    between atoms: _68  and  _69
REMARK   29  A    between atoms: _68  and  _71
REMARK   30  A    between atoms: _71  and  _72
REMARK   31  A    between atoms: _77  and  _78
REMARK   32  A    between atoms: _81  and  _82
REMARK   33  A    between atoms: _87  and  _89
REMARK   34  A    between atoms: _89  and  _90
REMARK   35  A    between atoms: _89  and  _92
REMARK   36  A    between atoms: _92  and  _93
REMARK   37  A    between atoms: _93  and  _94
REMARK   38  A    between atoms: _94  and  _95
REMARK   39  A    between atoms: _95  and  _96
REMARK   40  A    between atoms: _100  and  _102
REMARK   41  A    between atoms: _102  and  _103
REMARK   42  A    between atoms: _102  and  _105
REMARK   43  A    between atoms: _105  and  _106
REMARK   44  A    between atoms: _108  and  _110
REMARK   45  A    between atoms: _110  and  _111
REMARK   46  A    between atoms: _110  and  _113
REMARK   47  A    between atoms: _116  and  _118
REMARK   48  A    between atoms: _118  and  _119
REMARK   49  A    between atoms: _118  and  _121
REMARK   50  A    between atoms: _123  and  _125
REMARK   51  A    between atoms: _125  and  _126
REMARK   52  A    between atoms: _125  and  _128
REMARK   53  A    between atoms: _130  and  _132
REMARK   54  A    between atoms: _132  and  _133
REMARK   55  A    between atoms: _132  and  _135
REMARK   56  A    between atoms: _135  and  _136
REMARK   57  A    between atoms: _140  and  CO_321
REMARK   58  A    between atoms: _141  and  _143
REMARK   59  A    between atoms: _143  and  _144
REMARK   60  A    between atoms: _146  and  _148
REMARK   61  A    between atoms: _148  and  _149
REMARK   62  A    between atoms: _148  and  _151
REMARK   63  A    between atoms: _151  and  _152
REMARK   64  A    between atoms: _152  and  _153
REMARK   65  A    between atoms: _153  and  CO_322
REMARK   66  A    between atoms: _155  and  _157
REMARK   67  A    between atoms: _157  and  _158
REMARK   68  A    between atoms: _157  and  _160
REMARK   69  A    between atoms: _160  and  _161
REMARK   70  A    between atoms: _164  and  _166
REMARK   71  A    between atoms: _166  and  _167
REMARK   72  A    between atoms: _166  and  _169
REMARK   73  A    between atoms: _173  and  _175
REMARK   74  A    between atoms: _175  and  _176
REMARK   75  A    between atoms: _175  and  _178
REMARK   76  A    between atoms: _178  and  _179
REMARK   77  A    between atoms: _179  and  _180
REMARK   78  A    between atoms: _183  and  _185
REMARK   79  A    between atoms: _185  and  _186
REMARK   80  A    between atoms: _185  and  _188
REMARK   81  A    between atoms: _188  and  _189
REMARK   82  A    between atoms: _194  and  _195
REMARK   83  A    between atoms: _197  and  _199
REMARK   84  A    between atoms: _199  and  _200
REMARK   85  A    between atoms: _199  and  _202
REMARK   86  A    between atoms: _204  and  _206
REMARK   87  A    between atoms: _206  and  _207
REMARK   88  A    between atoms: _209  and  _211
REMARK   89  A    between atoms: _211  and  _212
REMARK   90  A    between atoms: _211  and  _214
REMARK   91  A    between atoms: _214  and  _215
REMARK   92  A    between atoms: _219  and  CO_323
REMARK   93  A    between atoms: _220  and  _222
REMARK   94  A    between atoms: _222  and  _223
REMARK   95  A    between atoms: _222  and  _225
REMARK   96  A    between atoms: _225  and  _226
REMARK   97  A    between atoms: _232  and  _234
REMARK   98  A    between atoms: _234  and  _235
REMARK   99  A    between atoms: _234  and  _237
REMARK  100  A    between atoms: _237  and  _238
REMARK  101  A    between atoms: _243  and  _245
REMARK  102  A    between atoms: _245  and  _246
REMARK  103  A    between atoms: _245  and  _248
REMARK  104  A    between atoms: _248  and  _249
REMARK  105  A    between atoms: _249  and  _250
REMARK  106  A    between atoms: _255  and  _257
REMARK  107  A    between atoms: _257  and  _258
REMARK  108  A    between atoms: _257  and  _260
REMARK  109  A    between atoms: _260  and  _261
REMARK  110  A    between atoms: _264  and  _266
REMARK  111  A    between atoms: _266  and  _267
REMARK  112  A    between atoms: _266  and  _269
REMARK  113  A    between atoms: _269  and  _270
REMARK  114  A    between atoms: _270  and  _271
REMARK  115  A    between atoms: _271  and  _273
REMARK  116  A    between atoms: _273  and  CO_323
REMARK  117  A    between atoms: _274  and  _276
REMARK  118  A    between atoms: _276  and  _277
REMARK  119  A    between atoms: _276  and  _279
REMARK  120  A    between atoms: _279  and  _280
REMARK  121  A    between atoms: _280  and  _281
REMARK  122  A    between atoms: _283  and  _285
REMARK  123  A    between atoms: _285  and  _286
REMARK  124  A    between atoms: _285  and  _288
REMARK  125  A    between atoms: _288  and  _289
REMARK  126  A    between atoms: _299  and  _301
REMARK  127  A    between atoms: _301  and  _302
REMARK  128  A    between atoms: _301  and  _304
REMARK  129  A    between atoms: _305  and  _306
REMARK  130  A    between atoms: _311  and  _313
REMARK  131  A    between atoms: _313  and  _314
REMARK  132  A    between atoms: _313  and  _316
REMARK  133  A    between atoms: _316  and  _317
REMARK  134  A    between atoms: _317  and  _318
REMARK                            x       y       z     vdW  Elec       q    Type
REMARK                         _______ _______ _______ _____ _____    ______ ____
ROOT
ATOM      1  O   HOH     1      26.110  -6.548   9.381  0.00  0.00    +0.000 OA
ENDROOT
TORSDOF 0
REMARK  Name = ../refined-set-2016/1yvm/1yvm_pocket.pdb
REMARK  134 active torsions:
REMARK  status: ('A' for Active; 'I' for Inactive)
REMARK    1  A    between atoms: _1  and  _3
REMARK    2  A    between atoms: _3  and  _4
REMARK    3  A    between atoms: _3  and  _6
REMARK    4  A    between atoms: _6  and  _7
REMARK    5  A    between atoms: _9  and  _11
REMARK    6  A    between atoms: _11  and  _12
REMARK    7  A    between atoms: _15  and  _17
REMARK    8  A    between atoms: _17  and  _18
REMARK    9  A    between atoms: _17  and  _20
REMARK   10  A    between atoms: _22  and  _24
REMARK   11  A    between atoms: _24  and  _25
REMARK   12  A    between atoms: _24  and  _27
REMARK   13  A    between atoms: _27  and  _28
REMARK   14  A    between atoms: _31  and  _33
REMARK   15  A    between atoms: _33  and  _34
REMARK   16  A    between atoms: _36  and  _38
REMARK   17  A    between atoms: _38  and  _39
REMARK   18  A    between atoms: _38  and  _41
REMARK   19  A    between atoms: _41  and  _42
REMARK   20  A    between atoms: _47  and  _48
REMARK   21  A    between atoms: _50  and  _52
REMARK   22  A    between atoms: _52  and  _53
REMARK   23  A    between atoms: _52  and  _55
REMARK   24  A    between atoms: _55  and  _56
REMARK   25  A    between atoms: _61  and  _63
REMARK   26  A    between atoms: _63  and  _64
REMARK   27  A    between atoms: _66  and  _68
REMARK   28  A    between atoms: _68  and  _69
REMARK   29  A    between atoms: _68  and  _71
REMARK   30  A    between atoms: _71  and  _72
REMARK   31  A    between atoms: _77  and  _78
REMARK   32  A    between atoms: _81  and  _82
REMARK   33  A    between atoms: _87  and  _89
REMARK   34  A    between atoms: _89  and  _90
REMARK   35  A    between atoms: _89  and  _92
REMARK   36  A    between atoms: _92  and  _93
REMARK   37  A    between atoms: _93  and  _94
REMARK   38  A    between atoms: _94  and  _95
REMARK   39  A    between atoms: _95  and  _96
REMARK   40  A    between atoms: _100  and  _102
REMARK   41  A    between atoms: _102  and  _103
REMARK   42  A    between atoms: _102  and  _105
REMARK   43  A    between atoms: _105  and  _106
REMARK   44  A    between atoms: _108  and  _110
REMARK   45  A    between atoms: _110  and  _111
REMARK   46  A    between atoms: _110  and  _113
REMARK   47  A    between atoms: _116  and  _118
REMARK   48  A    between atoms: _118  and  _119
REMARK   49  A    between atoms: _118  and  _121
REMARK   50  A    between atoms: _123  and  _125
REMARK   51  A    between atoms: _125  and  _126
REMARK   52  A    between atoms: _125  and  _128
REMARK   53  A    between atoms: _130  and  _132
REMARK   54  A    between atoms: _132  and  _133
REMARK   55  A    between atoms: _132  and  _135
REMARK   56  A    between atoms: _135  and  _136
REMARK   57  A    between atoms: _140  and  CO_321
REMARK   58  A    between atoms: _141  and  _143
REMARK   59  A    between atoms: _143  and  _144
REMARK   60  A    between atoms: _146  and  _148
REMARK   61  A    between atoms: _148  and  _149
REMARK   62  A    between atoms: _148  and  _151
REMARK   63  A    between atoms: _151  and  _152
REMARK   64  A    between atoms: _152  and  _153
REMARK   65  A    between atoms: _153  and  CO_322
REMARK   66  A    between atoms: _155  and  _157
REMARK   67  A    between atoms: _157  and  _158
REMARK   68  A    between atoms: _157  and  _160
REMARK   69  A    between atoms: _160  and  _161
REMARK   70  A    between atoms: _164  and  _166
REMARK   71  A    between atoms: _166  and  _167
REMARK   72  A    between atoms: _166  and  _169
REMARK   73  A    between atoms: _173  and  _175
REMARK   74  A    between atoms: _175  and  _176
REMARK   75  A    between atoms: _175  and  _178
REMARK   76  A    between atoms: _178  and  _179
REMARK   77  A    between atoms: _179  and  _180
REMARK   78  A    between atoms: _183  and  _185
REMARK   79  A    between atoms: _185  and  _186
REMARK   80  A    between atoms: _185  and  _188
REMARK   81  A    between atoms: _188  and  _189
REMARK   82  A    between atoms: _194  and  _195
REMARK   83  A    between atoms: _197  and  _199
REMARK   84  A    between atoms: _199  and  _200
REMARK   85  A    between atoms: _199  and  _202
REMARK   86  A    between atoms: _204  and  _206
REMARK   87  A    between atoms: _206  and  _207
REMARK   88  A    between atoms: _209  and  _211
REMARK   89  A    between atoms: _211  and  _212
REMARK   90  A    between atoms: _211  and  _214
REMARK   91  A    between atoms: _214  and  _215
REMARK   92  A    between atoms: _219  and  CO_323
REMARK   93  A    between atoms: _220  and  _222
REMARK   94  A    between atoms: _222  and  _223
REMARK   95  A    between atoms: _222  and  _225
REMARK   96  A    between atoms: _225  and  _226
REMARK   97  A    between atoms: _232  and  _234
REMARK   98  A    between atoms: _234  and  _235
REMARK   99  A    between atoms: _234  and  _237
REMARK  100  A    between atoms: _237  and  _238
REMARK  101  A    between atoms: _243  and  _245
REMARK  102  A    between atoms: _245  and  _246
REMARK  103  A    between atoms: _245  and  _248
REMARK  104  A    between atoms: _248  and  _249
REMARK  105  A    between atoms: _249  and  _250
REMARK  106  A    between atoms: _255  and  _257
REMARK  107  A    between atoms: _257  and  _258
REMARK  108  A    between atoms: _257  and  _260
REMARK  109  A    between atoms: _260  and  _261
REMARK  110  A    between atoms: _264  and  _266
REMARK  111  A    between atoms: _266  and  _267
REMARK  112  A    between atoms: _266  and  _269
REMARK  113  A    between atoms: _269  and  _270
REMARK  114  A    between atoms: _270  and  _271
REMARK  115  A    between atoms: _271  and  _273
REMARK  116  A    between atoms: _273  and  CO_323
REMARK  117  A    between atoms: _274  and  _276
REMARK  118  A    between atoms: _276  and  _277
REMARK  119  A    between atoms: _276  and  _279
REMARK  120  A    between atoms: _279  and  _280
REMARK  121  A    between atoms: _280  and  _281
REMARK  122  A    between atoms: _283  and  _285
REMARK  123  A    between atoms: _285  and  _286
REMARK  124  A    between atoms: _285  and  _288
REMARK  125  A    between atoms: _288  and  _289
REMARK  126  A    between atoms: _299  and  _301
REMARK  127  A    between atoms: _301  and  _302
REMARK  128  A    between atoms: _301  and  _304
REMARK  129  A    between atoms: _305  and  _306
REMARK  130  A    between atoms: _311  and  _313
REMARK  131  A    between atoms: _313  and  _314
REMARK  132  A    between atoms: _313  and  _316
REMARK  133  A    between atoms: _316  and  _317
REMARK  134  A    between atoms: _317  and  _318
REMARK                            x       y       z     vdW  Elec       q    Type
REMARK                         _______ _______ _______ _____ _____    ______ ____
ROOT
ATOM      1  O   HOH     1      18.360 -10.727  -1.529  0.00  0.00    +0.000 OA
ENDROOT
TORSDOF 0
REMARK  Name = ../refined-set-2016/1yvm/1yvm_pocket.pdb
REMARK  134 active torsions:
REMARK  status: ('A' for Active; 'I' for Inactive)
REMARK    1  A    between atoms: _1  and  _3
REMARK    2  A    between atoms: _3  and  _4
REMARK    3  A    between atoms: _3  and  _6
REMARK    4  A    between atoms: _6  and  _7
REMARK    5  A    between atoms: _9  and  _11
REMARK    6  A    between atoms: _11  and  _12
REMARK    7  A    between atoms: _15  and  _17
REMARK    8  A    between atoms: _17  and  _18
REMARK    9  A    between atoms: _17  and  _20
REMARK   10  A    between atoms: _22  and  _24
REMARK   11  A    between atoms: _24  and  _25
REMARK   12  A    between atoms: _24  and  _27
REMARK   13  A    between atoms: _27  and  _28
REMARK   14  A    between atoms: _31  and  _33
REMARK   15  A    between atoms: _33  and  _34
REMARK   16  A    between atoms: _36  and  _38
REMARK   17  A    between atoms: _38  and  _39
REMARK   18  A    between atoms: _38  and  _41
REMARK   19  A    between atoms: _41  and  _42
REMARK   20  A    between atoms: _47  and  _48
REMARK   21  A    between atoms: _50  and  _52
REMARK   22  A    between atoms: _52  and  _53
REMARK   23  A    between atoms: _52  and  _55
REMARK   24  A    between atoms: _55  and  _56
REMARK   25  A    between atoms: _61  and  _63
REMARK   26  A    between atoms: _63  and  _64
REMARK   27  A    between atoms: _66  and  _68
REMARK   28  A    between atoms: _68  and  _69
REMARK   29  A    between atoms: _68  and  _71
REMARK   30  A    between atoms: _71  and  _72
REMARK   31  A    between atoms: _77  and  _78
REMARK   32  A    between atoms: _81  and  _82
REMARK   33  A    between atoms: _87  and  _89
REMARK   34  A    between atoms: _89  and  _90
REMARK   35  A    between atoms: _89  and  _92
REMARK   36  A    between atoms: _92  and  _93
REMARK   37  A    between atoms: _93  and  _94
REMARK   38  A    between atoms: _94  and  _95
REMARK   39  A    between atoms: _95  and  _96
REMARK   40  A    between atoms: _100  and  _102
REMARK   41  A    between atoms: _102  and  _103
REMARK   42  A    between atoms: _102  and  _105
REMARK   43  A    between atoms: _105  and  _106
REMARK   44  A    between atoms: _108  and  _110
REMARK   45  A    between atoms: _110  and  _111
REMARK   46  A    between atoms: _110  and  _113
REMARK   47  A    between atoms: _116  and  _118
REMARK   48  A    between atoms: _118  and  _119
REMARK   49  A    between atoms: _118  and  _121
REMARK   50  A    between atoms: _123  and  _125
REMARK   51  A    between atoms: _125  and  _126
REMARK   52  A    between atoms: _125  and  _128
REMARK   53  A    between atoms: _130  and  _132
REMARK   54  A    between atoms: _132  and  _133
REMARK   55  A    between atoms: _132  and  _135
REMARK   56  A    between atoms: _135  and  _136
REMARK   57  A    between atoms: _140  and  CO_321
REMARK   58  A    between atoms: _141  and  _143
REMARK   59  A    between atoms: _143  and  _144
REMARK   60  A    between atoms: _146  and  _148
REMARK   61  A    between atoms: _148  and  _149
REMARK   62  A    between atoms: _148  and  _151
REMARK   63  A    between atoms: _151  and  _152
REMARK   64  A    between atoms: _152  and  _153
REMARK   65  A    between atoms: _153  and  CO_322
REMARK   66  A    between atoms: _155  and  _157
REMARK   67  A    between atoms: _157  and  _158
REMARK   68  A    between atoms: _157  and  _160
REMARK   69  A    between atoms: _160  and  _161
REMARK   70  A    between atoms: _164  and  _166
REMARK   71  A    between atoms: _166  and  _167
REMARK   72  A    between atoms: _166  and  _169
REMARK   73  A    between atoms: _173  and  _175
REMARK   74  A    between atoms: _175  and  _176
REMARK   75  A    between atoms: _175  and  _178
REMARK   76  A    between atoms: _178  and  _179
REMARK   77  A    between atoms: _179  and  _180
REMARK   78  A    between atoms: _183  and  _185
REMARK   79  A    between atoms: _185  and  _186
REMARK   80  A    between atoms: _185  and  _188
REMARK   81  A    between atoms: _188  and  _189
REMARK   82  A    between atoms: _194  and  _195
REMARK   83  A    between atoms: _197  and  _199
REMARK   84  A    between atoms: _199  and  _200
REMARK   85  A    between atoms: _199  and  _202
REMARK   86  A    between atoms: _204  and  _206
REMARK   87  A    between atoms: _206  and  _207
REMARK   88  A    between atoms: _209  and  _211
REMARK   89  A    between atoms: _211  and  _212
REMARK   90  A    between atoms: _211  and  _214
REMARK   91  A    between atoms: _214  and  _215
REMARK   92  A    between atoms: _219  and  CO_323
REMARK   93  A    between atoms: _220  and  _222
REMARK   94  A    between atoms: _222  and  _223
REMARK   95  A    between atoms: _222  and  _225
REMARK   96  A    between atoms: _225  and  _226
REMARK   97  A    between atoms: _232  and  _234
REMARK   98  A    between atoms: _234  and  _235
REMARK   99  A    between atoms: _234  and  _237
REMARK  100  A    between atoms: _237  and  _238
REMARK  101  A    between atoms: _243  and  _245
REMARK  102  A    between atoms: _245  and  _246
REMARK  103  A    between atoms: _245  and  _248
REMARK  104  A    between atoms: _248  and  _249
REMARK  105  A    between atoms: _249  and  _250
REMARK  106  A    between atoms: _255  and  _257
REMARK  107  A    between atoms: _257  and  _258
REMARK  108  A    between atoms: _257  and  _260
REMARK  109  A    between atoms: _260  and  _261
REMARK  110  A    between atoms: _264  and  _266
REMARK  111  A    between atoms: _266  and  _267
REMARK  112  A    between atoms: _266  and  _269
REMARK  113  A    between atoms: _269  and  _270
REMARK  114  A    between atoms: _270  and  _271
REMARK  115  A    between atoms: _271  and  _273
REMARK  116  A    between atoms: _273  and  CO_323
REMARK  117  A    between atoms: _274  and  _276
REMARK  118  A    between atoms: _276  and  _277
REMARK  119  A    between atoms: _276  and  _279
REMARK  120  A    between atoms: _279  and  _280
REMARK  121  A    between atoms: _280  and  _281
REMARK  122  A    between atoms: _283  and  _285
REMARK  123  A    between atoms: _285  and  _286
REMARK  124  A    between atoms: _285  and  _288
REMARK  125  A    between atoms: _288  and  _289
REMARK  126  A    between atoms: _299  and  _301
REMARK  127  A    between atoms: _301  and  _302
REMARK  128  A    between atoms: _301  and  _304
REMARK  129  A    between atoms: _305  and  _306
REMARK  130  A    between atoms: _311  and  _313
REMARK  131  A    between atoms: _313  and  _314
REMARK  132  A    between atoms: _313  and  _316
REMARK  133  A    between atoms: _316  and  _317
REMARK  134  A    between atoms: _317  and  _318
REMARK                            x       y       z     vdW  Elec       q    Type
REMARK                         _______ _______ _______ _____ _____    ______ ____
ROOT
ATOM      1  O   HOH     1      18.779 -10.777  11.421  0.00  0.00    +0.000 OA
ENDROOT
TORSDOF 0
REMARK  Name = ../refined-set-2016/1yvm/1yvm_pocket.pdb
REMARK  134 active torsions:
REMARK  status: ('A' for Active; 'I' for Inactive)
REMARK    1  A    between atoms: _1  and  _3
REMARK    2  A    between atoms: _3  and  _4
REMARK    3  A    between atoms: _3  and  _6
REMARK    4  A    between atoms: _6  and  _7
REMARK    5  A    between atoms: _9  and  _11
REMARK    6  A    between atoms: _11  and  _12
REMARK    7  A    between atoms: _15  and  _17
REMARK    8  A    between atoms: _17  and  _18
REMARK    9  A    between atoms: _17  and  _20
REMARK   10  A    between atoms: _22  and  _24
REMARK   11  A    between atoms: _24  and  _25
REMARK   12  A    between atoms: _24  and  _27
REMARK   13  A    between atoms: _27  and  _28
REMARK   14  A    between atoms: _31  and  _33
REMARK   15  A    between atoms: _33  and  _34
REMARK   16  A    between atoms: _36  and  _38
REMARK   17  A    between atoms: _38  and  _39
REMARK   18  A    between atoms: _38  and  _41
REMARK   19  A    between atoms: _41  and  _42
REMARK   20  A    between atoms: _47  and  _48
REMARK   21  A    between atoms: _50  and  _52
REMARK   22  A    between atoms: _52  and  _53
REMARK   23  A    between atoms: _52  and  _55
REMARK   24  A    between atoms: _55  and  _56
REMARK   25  A    between atoms: _61  and  _63
REMARK   26  A    between atoms: _63  and  _64
REMARK   27  A    between atoms: _66  and  _68
REMARK   28  A    between atoms: _68  and  _69
REMARK   29  A    between atoms: _68  and  _71
REMARK   30  A    between atoms: _71  and  _72
REMARK   31  A    between atoms: _77  and  _78
REMARK   32  A    between atoms: _81  and  _82
REMARK   33  A    between atoms: _87  and  _89
REMARK   34  A    between atoms: _89  and  _90
REMARK   35  A    between atoms: _89  and  _92
REMARK   36  A    between atoms: _92  and  _93
REMARK   37  A    between atoms: _93  and  _94
REMARK   38  A    between atoms: _94  and  _95
REMARK   39  A    between atoms: _95  and  _96
REMARK   40  A    between atoms: _100  and  _102
REMARK   41  A    between atoms: _102  and  _103
REMARK   42  A    between atoms: _102  and  _105
REMARK   43  A    between atoms: _105  and  _106
REMARK   44  A    between atoms: _108  and  _110
REMARK   45  A    between atoms: _110  and  _111
REMARK   46  A    between atoms: _110  and  _113
REMARK   47  A    between atoms: _116  and  _118
REMARK   48  A    between atoms: _118  and  _119
REMARK   49  A    between atoms: _118  and  _121
REMARK   50  A    between atoms: _123  and  _125
REMARK   51  A    between atoms: _125  and  _126
REMARK   52  A    between atoms: _125  and  _128
REMARK   53  A    between atoms: _130  and  _132
REMARK   54  A    between atoms: _132  and  _133
REMARK   55  A    between atoms: _132  and  _135
REMARK   56  A    between atoms: _135  and  _136
REMARK   57  A    between atoms: _140  and  CO_321
REMARK   58  A    between atoms: _141  and  _143
REMARK   59  A    between atoms: _143  and  _144
REMARK   60  A    between atoms: _146  and  _148
REMARK   61  A    between atoms: _148  and  _149
REMARK   62  A    between atoms: _148  and  _151
REMARK   63  A    between atoms: _151  and  _152
REMARK   64  A    between atoms: _152  and  _153
REMARK   65  A    between atoms: _153  and  CO_322
REMARK   66  A    between atoms: _155  and  _157
REMARK   67  A    between atoms: _157  and  _158
REMARK   68  A    between atoms: _157  and  _160
REMARK   69  A    between atoms: _160  and  _161
REMARK   70  A    between atoms: _164  and  _166
REMARK   71  A    between atoms: _166  and  _167
REMARK   72  A    between atoms: _166  and  _169
REMARK   73  A    between atoms: _173  and  _175
REMARK   74  A    between atoms: _175  and  _176
REMARK   75  A    between atoms: _175  and  _178
REMARK   76  A    between atoms: _178  and  _179
REMARK   77  A    between atoms: _179  and  _180
REMARK   78  A    between atoms: _183  and  _185
REMARK   79  A    between atoms: _185  and  _186
REMARK   80  A    between atoms: _185  and  _188
REMARK   81  A    between atoms: _188  and  _189
REMARK   82  A    between atoms: _194  and  _195
REMARK   83  A    between atoms: _197  and  _199
REMARK   84  A    between atoms: _199  and  _200
REMARK   85  A    between atoms: _199  and  _202
REMARK   86  A    between atoms: _204  and  _206
REMARK   87  A    between atoms: _206  and  _207
REMARK   88  A    between atoms: _209  and  _211
REMARK   89  A    between atoms: _211  and  _212
REMARK   90  A    between atoms: _211  and  _214
REMARK   91  A    between atoms: _214  and  _215
REMARK   92  A    between atoms: _219  and  CO_323
REMARK   93  A    between atoms: _220  and  _222
REMARK   94  A    between atoms: _222  and  _223
REMARK   95  A    between atoms: _222  and  _225
REMARK   96  A    between atoms: _225  and  _226
REMARK   97  A    between atoms: _232  and  _234
REMARK   98  A    between atoms: _234  and  _235
REMARK   99  A    between atoms: _234  and  _237
REMARK  100  A    between atoms: _237  and  _238
REMARK  101  A    between atoms: _243  and  _245
REMARK  102  A    between atoms: _245  and  _246
REMARK  103  A    between atoms: _245  and  _248
REMARK  104  A    between atoms: _248  and  _249
REMARK  105  A    between atoms: _249  and  _250
REMARK  106  A    between atoms: _255  and  _257
REMARK  107  A    between atoms: _257  and  _258
REMARK  108  A    between atoms: _257  and  _260
REMARK  109  A    between atoms: _260  and  _261
REMARK  110  A    between atoms: _264  and  _266
REMARK  111  A    between atoms: _266  and  _267
REMARK  112  A    between atoms: _266  and  _269
REMARK  113  A    between atoms: _269  and  _270
REMARK  114  A    between atoms: _270  and  _271
REMARK  115  A    between atoms: _271  and  _273
REMARK  116  A    between atoms: _273  and  CO_323
REMARK  117  A    between atoms: _274  and  _276
REMARK  118  A    between atoms: _276  and  _277
REMARK  119  A    between atoms: _276  and  _279
REMARK  120  A    between atoms: _279  and  _280
REMARK  121  A    between atoms: _280  and  _281
REMARK  122  A    between atoms: _283  and  _285
REMARK  123  A    between atoms: _285  and  _286
REMARK  124  A    between atoms: _285  and  _288
REMARK  125  A    between atoms: _288  and  _289
REMARK  126  A    between atoms: _299  and  _301
REMARK  127  A    between atoms: _301  and  _302
REMARK  128  A    between atoms: _301  and  _304
REMARK  129  A    between atoms: _305  and  _306
REMARK  130  A    between atoms: _311  and  _313
REMARK  131  A    between atoms: _313  and  _314
REMARK  132  A    between atoms: _313  and  _316
REMARK  133  A    between atoms: _316  and  _317
REMARK  134  A    between atoms: _317  and  _318
REMARK                            x       y       z     vdW  Elec       q    Type
REMARK                         _______ _______ _______ _____ _____    ______ ____
ROOT
ATOM      1  O   HOH     1      17.972  -9.083   7.252  0.00  0.00    +0.000 OA
ENDROOT
TORSDOF 0
REMARK  Name = ../refined-set-2016/1yvm/1yvm_pocket.pdb
REMARK  134 active torsions:
REMARK  status: ('A' for Active; 'I' for Inactive)
REMARK    1  A    between atoms: _1  and  _3
REMARK    2  A    between atoms: _3  and  _4
REMARK    3  A    between atoms: _3  and  _6
REMARK    4  A    between atoms: _6  and  _7
REMARK    5  A    between atoms: _9  and  _11
REMARK    6  A    between atoms: _11  and  _12
REMARK    7  A    between atoms: _15  and  _17
REMARK    8  A    between atoms: _17  and  _18
REMARK    9  A    between atoms: _17  and  _20
REMARK   10  A    between atoms: _22  and  _24
REMARK   11  A    between atoms: _24  and  _25
REMARK   12  A    between atoms: _24  and  _27
REMARK   13  A    between atoms: _27  and  _28
REMARK   14  A    between atoms: _31  and  _33
REMARK   15  A    between atoms: _33  and  _34
REMARK   16  A    between atoms: _36  and  _38
REMARK   17  A    between atoms: _38  and  _39
REMARK   18  A    between atoms: _38  and  _41
REMARK   19  A    between atoms: _41  and  _42
REMARK   20  A    between atoms: _47  and  _48
REMARK   21  A    between atoms: _50  and  _52
REMARK   22  A    between atoms: _52  and  _53
REMARK   23  A    between atoms: _52  and  _55
REMARK   24  A    between atoms: _55  and  _56
REMARK   25  A    between atoms: _61  and  _63
REMARK   26  A    between atoms: _63  and  _64
REMARK   27  A    between atoms: _66  and  _68
REMARK   28  A    between atoms: _68  and  _69
REMARK   29  A    between atoms: _68  and  _71
REMARK   30  A    between atoms: _71  and  _72
REMARK   31  A    between atoms: _77  and  _78
REMARK   32  A    between atoms: _81  and  _82
REMARK   33  A    between atoms: _87  and  _89
REMARK   34  A    between atoms: _89  and  _90
REMARK   35  A    between atoms: _89  and  _92
REMARK   36  A    between atoms: _92  and  _93
REMARK   37  A    between atoms: _93  and  _94
REMARK   38  A    between atoms: _94  and  _95
REMARK   39  A    between atoms: _95  and  _96
REMARK   40  A    between atoms: _100  and  _102
REMARK   41  A    between atoms: _102  and  _103
REMARK   42  A    between atoms: _102  and  _105
REMARK   43  A    between atoms: _105  and  _106
REMARK   44  A    between atoms: _108  and  _110
REMARK   45  A    between atoms: _110  and  _111
REMARK   46  A    between atoms: _110  and  _113
REMARK   47  A    between atoms: _116  and  _118
REMARK   48  A    between atoms: _118  and  _119
REMARK   49  A    between atoms: _118  and  _121
REMARK   50  A    between atoms: _123  and  _125
REMARK   51  A    between atoms: _125  and  _126
REMARK   52  A    between atoms: _125  and  _128
REMARK   53  A    between atoms: _130  and  _132
REMARK   54  A    between atoms: _132  and  _133
REMARK   55  A    between atoms: _132  and  _135
REMARK   56  A    between atoms: _135  and  _136
REMARK   57  A    between atoms: _140  and  CO_321
REMARK   58  A    between atoms: _141  and  _143
REMARK   59  A    between atoms: _143  and  _144
REMARK   60  A    between atoms: _146  and  _148
REMARK   61  A    between atoms: _148  and  _149
REMARK   62  A    between atoms: _148  and  _151
REMARK   63  A    between atoms: _151  and  _152
REMARK   64  A    between atoms: _152  and  _153
REMARK   65  A    between atoms: _153  and  CO_322
REMARK   66  A    between atoms: _155  and  _157
REMARK   67  A    between atoms: _157  and  _158
REMARK   68  A    between atoms: _157  and  _160
REMARK   69  A    between atoms: _160  and  _161
REMARK   70  A    between atoms: _164  and  _166
REMARK   71  A    between atoms: _166  and  _167
REMARK   72  A    between atoms: _166  and  _169
REMARK   73  A    between atoms: _173  and  _175
REMARK   74  A    between atoms: _175  and  _176
REMARK   75  A    between atoms: _175  and  _178
REMARK   76  A    between atoms: _178  and  _179
REMARK   77  A    between atoms: _179  and  _180
REMARK   78  A    between atoms: _183  and  _185
REMARK   79  A    between atoms: _185  and  _186
REMARK   80  A    between atoms: _185  and  _188
REMARK   81  A    between atoms: _188  and  _189
REMARK   82  A    between atoms: _194  and  _195
REMARK   83  A    between atoms: _197  and  _199
REMARK   84  A    between atoms: _199  and  _200
REMARK   85  A    between atoms: _199  and  _202
REMARK   86  A    between atoms: _204  and  _206
REMARK   87  A    between atoms: _206  and  _207
REMARK   88  A    between atoms: _209  and  _211
REMARK   89  A    between atoms: _211  and  _212
REMARK   90  A    between atoms: _211  and  _214
REMARK   91  A    between atoms: _214  and  _215
REMARK   92  A    between atoms: _219  and  CO_323
REMARK   93  A    between atoms: _220  and  _222
REMARK   94  A    between atoms: _222  and  _223
REMARK   95  A    between atoms: _222  and  _225
REMARK   96  A    between atoms: _225  and  _226
REMARK   97  A    between atoms: _232  and  _234
REMARK   98  A    between atoms: _234  and  _235
REMARK   99  A    between atoms: _234  and  _237
REMARK  100  A    between atoms: _237  and  _238
REMARK  101  A    between atoms: _243  and  _245
REMARK  102  A    between atoms: _245  and  _246
REMARK  103  A    between atoms: _245  and  _248
REMARK  104  A    between atoms: _248  and  _249
REMARK  105  A    between atoms: _249  and  _250
REMARK  106  A    between atoms: _255  and  _257
REMARK  107  A    between atoms: _257  and  _258
REMARK  108  A    between atoms: _257  and  _260
REMARK  109  A    between atoms: _260  and  _261
REMARK  110  A    between atoms: _264  and  _266
REMARK  111  A    between atoms: _266  and  _267
REMARK  112  A    between atoms: _266  and  _269
REMARK  113  A    between atoms: _269  and  _270
REMARK  114  A    between atoms: _270  and  _271
REMARK  115  A    between atoms: _271  and  _273
REMARK  116  A    between atoms: _273  and  CO_323
REMARK  117  A    between atoms: _274  and  _276
REMARK  118  A    between atoms: _276  and  _277
REMARK  119  A    between atoms: _276  and  _279
REMARK  120  A    between atoms: _279  and  _280
REMARK  121  A    between atoms: _280  and  _281
REMARK  122  A    between atoms: _283  and  _285
REMARK  123  A    between atoms: _285  and  _286
REMARK  124  A    between atoms: _285  and  _288
REMARK  125  A    between atoms: _288  and  _289
REMARK  126  A    between atoms: _299  and  _301
REMARK  127  A    between atoms: _301  and  _302
REMARK  128  A    between atoms: _301  and  _304
REMARK  129  A    between atoms: _305  and  _306
REMARK  130  A    between atoms: _311  and  _313
REMARK  131  A    between atoms: _313  and  _314
REMARK  132  A    between atoms: _313  and  _316
REMARK  133  A    between atoms: _316  and  _317
REMARK  134  A    between atoms: _317  and  _318
REMARK                            x       y       z     vdW  Elec       q    Type
REMARK                         _______ _______ _______ _____ _____    ______ ____
ROOT
ATOM      1  O   HOH     1      22.621  -2.724   3.791  0.00  0.00    +0.000 OA
ENDROOT
TORSDOF 0
REMARK  Name = ../refined-set-2016/1yvm/1yvm_pocket.pdb
REMARK  134 active torsions:
REMARK  status: ('A' for Active; 'I' for Inactive)
REMARK    1  A    between atoms: _1  and  _3
REMARK    2  A    between atoms: _3  and  _4
REMARK    3  A    between atoms: _3  and  _6
REMARK    4  A    between atoms: _6  and  _7
REMARK    5  A    between atoms: _9  and  _11
REMARK    6  A    between atoms: _11  and  _12
REMARK    7  A    between atoms: _15  and  _17
REMARK    8  A    between atoms: _17  and  _18
REMARK    9  A    between atoms: _17  and  _20
REMARK   10  A    between atoms: _22  and  _24
REMARK   11  A    between atoms: _24  and  _25
REMARK   12  A    between atoms: _24  and  _27
REMARK   13  A    between atoms: _27  and  _28
REMARK   14  A    between atoms: _31  and  _33
REMARK   15  A    between atoms: _33  and  _34
REMARK   16  A    between atoms: _36  and  _38
REMARK   17  A    between atoms: _38  and  _39
REMARK   18  A    between atoms: _38  and  _41
REMARK   19  A    between atoms: _41  and  _42
REMARK   20  A    between atoms: _47  and  _48
REMARK   21  A    between atoms: _50  and  _52
REMARK   22  A    between atoms: _52  and  _53
REMARK   23  A    between atoms: _52  and  _55
REMARK   24  A    between atoms: _55  and  _56
REMARK   25  A    between atoms: _61  and  _63
REMARK   26  A    between atoms: _63  and  _64
REMARK   27  A    between atoms: _66  and  _68
REMARK   28  A    between atoms: _68  and  _69
REMARK   29  A    between atoms: _68  and  _71
REMARK   30  A    between atoms: _71  and  _72
REMARK   31  A    between atoms: _77  and  _78
REMARK   32  A    between atoms: _81  and  _82
REMARK   33  A    between atoms: _87  and  _89
REMARK   34  A    between atoms: _89  and  _90
REMARK   35  A    between atoms: _89  and  _92
REMARK   36  A    between atoms: _92  and  _93
REMARK   37  A    between atoms: _93  and  _94
REMARK   38  A    between atoms: _94  and  _95
REMARK   39  A    between atoms: _95  and  _96
REMARK   40  A    between atoms: _100  and  _102
REMARK   41  A    between atoms: _102  and  _103
REMARK   42  A    between atoms: _102  and  _105
REMARK   43  A    between atoms: _105  and  _106
REMARK   44  A    between atoms: _108  and  _110
REMARK   45  A    between atoms: _110  and  _111
REMARK   46  A    between atoms: _110  and  _113
REMARK   47  A    between atoms: _116  and  _118
REMARK   48  A    between atoms: _118  and  _119
REMARK   49  A    between atoms: _118  and  _121
REMARK   50  A    between atoms: _123  and  _125
REMARK   51  A    between atoms: _125  and  _126
REMARK   52  A    between atoms: _125  and  _128
REMARK   53  A    between atoms: _130  and  _132
REMARK   54  A    between atoms: _132  and  _133
REMARK   55  A    between atoms: _132  and  _135
REMARK   56  A    between atoms: _135  and  _136
REMARK   57  A    between atoms: _140  and  CO_321
REMARK   58  A    between atoms: _141  and  _143
REMARK   59  A    between atoms: _143  and  _144
REMARK   60  A    between atoms: _146  and  _148
REMARK   61  A    between atoms: _148  and  _149
REMARK   62  A    between atoms: _148  and  _151
REMARK   63  A    between atoms: _151  and  _152
REMARK   64  A    between atoms: _152  and  _153
REMARK   65  A    between atoms: _153  and  CO_322
REMARK   66  A    between atoms: _155  and  _157
REMARK   67  A    between atoms: _157  and  _158
REMARK   68  A    between atoms: _157  and  _160
REMARK   69  A    between atoms: _160  and  _161
REMARK   70  A    between atoms: _164  and  _166
REMARK   71  A    between atoms: _166  and  _167
REMARK   72  A    between atoms: _166  and  _169
REMARK   73  A    between atoms: _173  and  _175
REMARK   74  A    between atoms: _175  and  _176
REMARK   75  A    between atoms: _175  and  _178
REMARK   76  A    between atoms: _178  and  _179
REMARK   77  A    between atoms: _179  and  _180
REMARK   78  A    between atoms: _183  and  _185
REMARK   79  A    between atoms: _185  and  _186
REMARK   80  A    between atoms: _185  and  _188
REMARK   81  A    between atoms: _188  and  _189
REMARK   82  A    between atoms: _194  and  _195
REMARK   83  A    between atoms: _197  and  _199
REMARK   84  A    between atoms: _199  and  _200
REMARK   85  A    between atoms: _199  and  _202
REMARK   86  A    between atoms: _204  and  _206
REMARK   87  A    between atoms: _206  and  _207
REMARK   88  A    between atoms: _209  and  _211
REMARK   89  A    between atoms: _211  and  _212
REMARK   90  A    between atoms: _211  and  _214
REMARK   91  A    between atoms: _214  and  _215
REMARK   92  A    between atoms: _219  and  CO_323
REMARK   93  A    between atoms: _220  and  _222
REMARK   94  A    between atoms: _222  and  _223
REMARK   95  A    between atoms: _222  and  _225
REMARK   96  A    between atoms: _225  and  _226
REMARK   97  A    between atoms: _232  and  _234
REMARK   98  A    between atoms: _234  and  _235
REMARK   99  A    between atoms: _234  and  _237
REMARK  100  A    between atoms: _237  and  _238
REMARK  101  A    between atoms: _243  and  _245
REMARK  102  A    between atoms: _245  and  _246
REMARK  103  A    between atoms: _245  and  _248
REMARK  104  A    between atoms: _248  and  _249
REMARK  105  A    between atoms: _249  and  _250
REMARK  106  A    between atoms: _255  and  _257
REMARK  107  A    between atoms: _257  and  _258
REMARK  108  A    between atoms: _257  and  _260
REMARK  109  A    between atoms: _260  and  _261
REMARK  110  A    between atoms: _264  and  _266
REMARK  111  A    between atoms: _266  and  _267
REMARK  112  A    between atoms: _266  and  _269
REMARK  113  A    between atoms: _269  and  _270
REMARK  114  A    between atoms: _270  and  _271
REMARK  115  A    between atoms: _271  and  _273
REMARK  116  A    between atoms: _273  and  CO_323
REMARK  117  A    between atoms: _274  and  _276
REMARK  118  A    between atoms: _276  and  _277
REMARK  119  A    between atoms: _276  and  _279
REMARK  120  A    between atoms: _279  and  _280
REMARK  121  A    between atoms: _280  and  _281
REMARK  122  A    between atoms: _283  and  _285
REMARK  123  A    between atoms: _285  and  _286
REMARK  124  A    between atoms: _285  and  _288
REMARK  125  A    between atoms: _288  and  _289
REMARK  126  A    between atoms: _299  and  _301
REMARK  127  A    between atoms: _301  and  _302
REMARK  128  A    between atoms: _301  and  _304
REMARK  129  A    between atoms: _305  and  _306
REMARK  130  A    between atoms: _311  and  _313
REMARK  131  A    between atoms: _313  and  _314
REMARK  132  A    between atoms: _313  and  _316
REMARK  133  A    between atoms: _316  and  _317
REMARK  134  A    between atoms: _317  and  _318
REMARK                            x       y       z     vdW  Elec       q    Type
REMARK                         _______ _______ _______ _____ _____    ______ ____
ROOT
ATOM      1  O   HOH     1      15.516  -6.551   8.215  0.00  0.00    +0.000 OA
ENDROOT
TORSDOF 0
REMARK  Name = ../refined-set-2016/1yvm/1yvm_pocket.pdb
REMARK  134 active torsions:
REMARK  status: ('A' for Active; 'I' for Inactive)
REMARK    1  A    between atoms: _1  and  _3
REMARK    2  A    between atoms: _3  and  _4
REMARK    3  A    between atoms: _3  and  _6
REMARK    4  A    between atoms: _6  and  _7
REMARK    5  A    between atoms: _9  and  _11
REMARK    6  A    between atoms: _11  and  _12
REMARK    7  A    between atoms: _15  and  _17
REMARK    8  A    between atoms: _17  and  _18
REMARK    9  A    between atoms: _17  and  _20
REMARK   10  A    between atoms: _22  and  _24
REMARK   11  A    between atoms: _24  and  _25
REMARK   12  A    between atoms: _24  and  _27
REMARK   13  A    between atoms: _27  and  _28
REMARK   14  A    between atoms: _31  and  _33
REMARK   15  A    between atoms: _33  and  _34
REMARK   16  A    between atoms: _36  and  _38
REMARK   17  A    between atoms: _38  and  _39
REMARK   18  A    between atoms: _38  and  _41
REMARK   19  A    between atoms: _41  and  _42
REMARK   20  A    between atoms: _47  and  _48
REMARK   21  A    between atoms: _50  and  _52
REMARK   22  A    between atoms: _52  and  _53
REMARK   23  A    between atoms: _52  and  _55
REMARK   24  A    between atoms: _55  and  _56
REMARK   25  A    between atoms: _61  and  _63
REMARK   26  A    between atoms: _63  and  _64
REMARK   27  A    between atoms: _66  and  _68
REMARK   28  A    between atoms: _68  and  _69
REMARK   29  A    between atoms: _68  and  _71
REMARK   30  A    between atoms: _71  and  _72
REMARK   31  A    between atoms: _77  and  _78
REMARK   32  A    between atoms: _81  and  _82
REMARK   33  A    between atoms: _87  and  _89
REMARK   34  A    between atoms: _89  and  _90
REMARK   35  A    between atoms: _89  and  _92
REMARK   36  A    between atoms: _92  and  _93
REMARK   37  A    between atoms: _93  and  _94
REMARK   38  A    between atoms: _94  and  _95
REMARK   39  A    between atoms: _95  and  _96
REMARK   40  A    between atoms: _100  and  _102
REMARK   41  A    between atoms: _102  and  _103
REMARK   42  A    between atoms: _102  and  _105
REMARK   43  A    between atoms: _105  and  _106
REMARK   44  A    between atoms: _108  and  _110
REMARK   45  A    between atoms: _110  and  _111
REMARK   46  A    between atoms: _110  and  _113
REMARK   47  A    between atoms: _116  and  _118
REMARK   48  A    between atoms: _118  and  _119
REMARK   49  A    between atoms: _118  and  _121
REMARK   50  A    between atoms: _123  and  _125
REMARK   51  A    between atoms: _125  and  _126
REMARK   52  A    between atoms: _125  and  _128
REMARK   53  A    between atoms: _130  and  _132
REMARK   54  A    between atoms: _132  and  _133
REMARK   55  A    between atoms: _132  and  _135
REMARK   56  A    between atoms: _135  and  _136
REMARK   57  A    between atoms: _140  and  CO_321
REMARK   58  A    between atoms: _141  and  _143
REMARK   59  A    between atoms: _143  and  _144
REMARK   60  A    between atoms: _146  and  _148
REMARK   61  A    between atoms: _148  and  _149
REMARK   62  A    between atoms: _148  and  _151
REMARK   63  A    between atoms: _151  and  _152
REMARK   64  A    between atoms: _152  and  _153
REMARK   65  A    between atoms: _153  and  CO_322
REMARK   66  A    between atoms: _155  and  _157
REMARK   67  A    between atoms: _157  and  _158
REMARK   68  A    between atoms: _157  and  _160
REMARK   69  A    between atoms: _160  and  _161
REMARK   70  A    between atoms: _164  and  _166
REMARK   71  A    between atoms: _166  and  _167
REMARK   72  A    between atoms: _166  and  _169
REMARK   73  A    between atoms: _173  and  _175
REMARK   74  A    between atoms: _175  and  _176
REMARK   75  A    between atoms: _175  and  _178
REMARK   76  A    between atoms: _178  and  _179
REMARK   77  A    between atoms: _179  and  _180
REMARK   78  A    between atoms: _183  and  _185
REMARK   79  A    between atoms: _185  and  _186
REMARK   80  A    between atoms: _185  and  _188
REMARK   81  A    between atoms: _188  and  _189
REMARK   82  A    between atoms: _194  and  _195
REMARK   83  A    between atoms: _197  and  _199
REMARK   84  A    between atoms: _199  and  _200
REMARK   85  A    between atoms: _199  and  _202
REMARK   86  A    between atoms: _204  and  _206
REMARK   87  A    between atoms: _206  and  _207
REMARK   88  A    between atoms: _209  and  _211
REMARK   89  A    between atoms: _211  and  _212
REMARK   90  A    between atoms: _211  and  _214
REMARK   91  A    between atoms: _214  and  _215
REMARK   92  A    between atoms: _219  and  CO_323
REMARK   93  A    between atoms: _220  and  _222
REMARK   94  A    between atoms: _222  and  _223
REMARK   95  A    between atoms: _222  and  _225
REMARK   96  A    between atoms: _225  and  _226
REMARK   97  A    between atoms: _232  and  _234
REMARK   98  A    between atoms: _234  and  _235
REMARK   99  A    between atoms: _234  and  _237
REMARK  100  A    between atoms: _237  and  _238
REMARK  101  A    between atoms: _243  and  _245
REMARK  102  A    between atoms: _245  and  _246
REMARK  103  A    between atoms: _245  and  _248
REMARK  104  A    between atoms: _248  and  _249
REMARK  105  A    between atoms: _249  and  _250
REMARK  106  A    between atoms: _255  and  _257
REMARK  107  A    between atoms: _257  and  _258
REMARK  108  A    between atoms: _257  and  _260
REMARK  109  A    between atoms: _260  and  _261
REMARK  110  A    between atoms: _264  and  _266
REMARK  111  A    between atoms: _266  and  _267
REMARK  112  A    between atoms: _266  and  _269
REMARK  113  A    between atoms: _269  and  _270
REMARK  114  A    between atoms: _270  and  _271
REMARK  115  A    between atoms: _271  and  _273
REMARK  116  A    between atoms: _273  and  CO_323
REMARK  117  A    between atoms: _274  and  _276
REMARK  118  A    between atoms: _276  and  _277
REMARK  119  A    between atoms: _276  and  _279
REMARK  120  A    between atoms: _279  and  _280
REMARK  121  A    between atoms: _280  and  _281
REMARK  122  A    between atoms: _283  and  _285
REMARK  123  A    between atoms: _285  and  _286
REMARK  124  A    between atoms: _285  and  _288
REMARK  125  A    between atoms: _288  and  _289
REMARK  126  A    between atoms: _299  and  _301
REMARK  127  A    between atoms: _301  and  _302
REMARK  128  A    between atoms: _301  and  _304
REMARK  129  A    between atoms: _305  and  _306
REMARK  130  A    between atoms: _311  and  _313
REMARK  131  A    between atoms: _313  and  _314
REMARK  132  A    between atoms: _313  and  _316
REMARK  133  A    between atoms: _316  and  _317
REMARK  134  A    between atoms: _317  and  _318
REMARK                            x       y       z     vdW  Elec       q    Type
REMARK                         _______ _______ _______ _____ _____    ______ ____
ROOT
ATOM      1  O   HOH     1      19.565  -7.309   4.598  0.00  0.00    +0.000 OA
ENDROOT
TORSDOF 0
REMARK  Name = ../refined-set-2016/1yvm/1yvm_pocket.pdb
REMARK  134 active torsions:
REMARK  status: ('A' for Active; 'I' for Inactive)
REMARK    1  A    between atoms: _1  and  _3
REMARK    2  A    between atoms: _3  and  _4
REMARK    3  A    between atoms: _3  and  _6
REMARK    4  A    between atoms: _6  and  _7
REMARK    5  A    between atoms: _9  and  _11
REMARK    6  A    between atoms: _11  and  _12
REMARK    7  A    between atoms: _15  and  _17
REMARK    8  A    between atoms: _17  and  _18
REMARK    9  A    between atoms: _17  and  _20
REMARK   10  A    between atoms: _22  and  _24
REMARK   11  A    between atoms: _24  and  _25
REMARK   12  A    between atoms: _24  and  _27
REMARK   13  A    between atoms: _27  and  _28
REMARK   14  A    between atoms: _31  and  _33
REMARK   15  A    between atoms: _33  and  _34
REMARK   16  A    between atoms: _36  and  _38
REMARK   17  A    between atoms: _38  and  _39
REMARK   18  A    between atoms: _38  and  _41
REMARK   19  A    between atoms: _41  and  _42
REMARK   20  A    between atoms: _47  and  _48
REMARK   21  A    between atoms: _50  and  _52
REMARK   22  A    between atoms: _52  and  _53
REMARK   23  A    between atoms: _52  and  _55
REMARK   24  A    between atoms: _55  and  _56
REMARK   25  A    between atoms: _61  and  _63
REMARK   26  A    between atoms: _63  and  _64
REMARK   27  A    between atoms: _66  and  _68
REMARK   28  A    between atoms: _68  and  _69
REMARK   29  A    between atoms: _68  and  _71
REMARK   30  A    between atoms: _71  and  _72
REMARK   31  A    between atoms: _77  and  _78
REMARK   32  A    between atoms: _81  and  _82
REMARK   33  A    between atoms: _87  and  _89
REMARK   34  A    between atoms: _89  and  _90
REMARK   35  A    between atoms: _89  and  _92
REMARK   36  A    between atoms: _92  and  _93
REMARK   37  A    between atoms: _93  and  _94
REMARK   38  A    between atoms: _94  and  _95
REMARK   39  A    between atoms: _95  and  _96
REMARK   40  A    between atoms: _100  and  _102
REMARK   41  A    between atoms: _102  and  _103
REMARK   42  A    between atoms: _102  and  _105
REMARK   43  A    between atoms: _105  and  _106
REMARK   44  A    between atoms: _108  and  _110
REMARK   45  A    between atoms: _110  and  _111
REMARK   46  A    between atoms: _110  and  _113
REMARK   47  A    between atoms: _116  and  _118
REMARK   48  A    between atoms: _118  and  _119
REMARK   49  A    between atoms: _118  and  _121
REMARK   50  A    between atoms: _123  and  _125
REMARK   51  A    between atoms: _125  and  _126
REMARK   52  A    between atoms: _125  and  _128
REMARK   53  A    between atoms: _130  and  _132
REMARK   54  A    between atoms: _132  and  _133
REMARK   55  A    between atoms: _132  and  _135
REMARK   56  A    between atoms: _135  and  _136
REMARK   57  A    between atoms: _140  and  CO_321
REMARK   58  A    between atoms: _141  and  _143
REMARK   59  A    between atoms: _143  and  _144
REMARK   60  A    between atoms: _146  and  _148
REMARK   61  A    between atoms: _148  and  _149
REMARK   62  A    between atoms: _148  and  _151
REMARK   63  A    between atoms: _151  and  _152
REMARK   64  A    between atoms: _152  and  _153
REMARK   65  A    between atoms: _153  and  CO_322
REMARK   66  A    between atoms: _155  and  _157
REMARK   67  A    between atoms: _157  and  _158
REMARK   68  A    between atoms: _157  and  _160
REMARK   69  A    between atoms: _160  and  _161
REMARK   70  A    between atoms: _164  and  _166
REMARK   71  A    between atoms: _166  and  _167
REMARK   72  A    between atoms: _166  and  _169
REMARK   73  A    between atoms: _173  and  _175
REMARK   74  A    between atoms: _175  and  _176
REMARK   75  A    between atoms: _175  and  _178
REMARK   76  A    between atoms: _178  and  _179
REMARK   77  A    between atoms: _179  and  _180
REMARK   78  A    between atoms: _183  and  _185
REMARK   79  A    between atoms: _185  and  _186
REMARK   80  A    between atoms: _185  and  _188
REMARK   81  A    between atoms: _188  and  _189
REMARK   82  A    between atoms: _194  and  _195
REMARK   83  A    between atoms: _197  and  _199
REMARK   84  A    between atoms: _199  and  _200
REMARK   85  A    between atoms: _199  and  _202
REMARK   86  A    between atoms: _204  and  _206
REMARK   87  A    between atoms: _206  and  _207
REMARK   88  A    between atoms: _209  and  _211
REMARK   89  A    between atoms: _211  and  _212
REMARK   90  A    between atoms: _211  and  _214
REMARK   91  A    between atoms: _214  and  _215
REMARK   92  A    between atoms: _219  and  CO_323
REMARK   93  A    between atoms: _220  and  _222
REMARK   94  A    between atoms: _222  and  _223
REMARK   95  A    between atoms: _222  and  _225
REMARK   96  A    between atoms: _225  and  _226
REMARK   97  A    between atoms: _232  and  _234
REMARK   98  A    between atoms: _234  and  _235
REMARK   99  A    between atoms: _234  and  _237
REMARK  100  A    between atoms: _237  and  _238
REMARK  101  A    between atoms: _243  and  _245
REMARK  102  A    between atoms: _245  and  _246
REMARK  103  A    between atoms: _245  and  _248
REMARK  104  A    between atoms: _248  and  _249
REMARK  105  A    between atoms: _249  and  _250
REMARK  106  A    between atoms: _255  and  _257
REMARK  107  A    between atoms: _257  and  _258
REMARK  108  A    between atoms: _257  and  _260
REMARK  109  A    between atoms: _260  and  _261
REMARK  110  A    between atoms: _264  and  _266
REMARK  111  A    between atoms: _266  and  _267
REMARK  112  A    between atoms: _266  and  _269
REMARK  113  A    between atoms: _269  and  _270
REMARK  114  A    between atoms: _270  and  _271
REMARK  115  A    between atoms: _271  and  _273
REMARK  116  A    between atoms: _273  and  CO_323
REMARK  117  A    between atoms: _274  and  _276
REMARK  118  A    between atoms: _276  and  _277
REMARK  119  A    between atoms: _276  and  _279
REMARK  120  A    between atoms: _279  and  _280
REMARK  121  A    between atoms: _280  and  _281
REMARK  122  A    between atoms: _283  and  _285
REMARK  123  A    between atoms: _285  and  _286
REMARK  124  A    between atoms: _285  and  _288
REMARK  125  A    between atoms: _288  and  _289
REMARK  126  A    between atoms: _299  and  _301
REMARK  127  A    between atoms: _301  and  _302
REMARK  128  A    between atoms: _301  and  _304
REMARK  129  A    between atoms: _305  and  _306
REMARK  130  A    between atoms: _311  and  _313
REMARK  131  A    between atoms: _313  and  _314
REMARK  132  A    between atoms: _313  and  _316
REMARK  133  A    between atoms: _316  and  _317
REMARK  134  A    between atoms: _317  and  _318
REMARK                            x       y       z     vdW  Elec       q    Type
REMARK                         _______ _______ _______ _____ _____    ______ ____
ROOT
ATOM      1  O   HOH     1      21.313  -5.619   3.935  0.00  0.00    +0.000 OA
ENDROOT
TORSDOF 0
REMARK  Name = ../refined-set-2016/1yvm/1yvm_pocket.pdb
REMARK  134 active torsions:
REMARK  status: ('A' for Active; 'I' for Inactive)
REMARK    1  A    between atoms: _1  and  _3
REMARK    2  A    between atoms: _3  and  _4
REMARK    3  A    between atoms: _3  and  _6
REMARK    4  A    between atoms: _6  and  _7
REMARK    5  A    between atoms: _9  and  _11
REMARK    6  A    between atoms: _11  and  _12
REMARK    7  A    between atoms: _15  and  _17
REMARK    8  A    between atoms: _17  and  _18
REMARK    9  A    between atoms: _17  and  _20
REMARK   10  A    between atoms: _22  and  _24
REMARK   11  A    between atoms: _24  and  _25
REMARK   12  A    between atoms: _24  and  _27
REMARK   13  A    between atoms: _27  and  _28
REMARK   14  A    between atoms: _31  and  _33
REMARK   15  A    between atoms: _33  and  _34
REMARK   16  A    between atoms: _36  and  _38
REMARK   17  A    between atoms: _38  and  _39
REMARK   18  A    between atoms: _38  and  _41
REMARK   19  A    between atoms: _41  and  _42
REMARK   20  A    between atoms: _47  and  _48
REMARK   21  A    between atoms: _50  and  _52
REMARK   22  A    between atoms: _52  and  _53
REMARK   23  A    between atoms: _52  and  _55
REMARK   24  A    between atoms: _55  and  _56
REMARK   25  A    between atoms: _61  and  _63
REMARK   26  A    between atoms: _63  and  _64
REMARK   27  A    between atoms: _66  and  _68
REMARK   28  A    between atoms: _68  and  _69
REMARK   29  A    between atoms: _68  and  _71
REMARK   30  A    between atoms: _71  and  _72
REMARK   31  A    between atoms: _77  and  _78
REMARK   32  A    between atoms: _81  and  _82
REMARK   33  A    between atoms: _87  and  _89
REMARK   34  A    between atoms: _89  and  _90
REMARK   35  A    between atoms: _89  and  _92
REMARK   36  A    between atoms: _92  and  _93
REMARK   37  A    between atoms: _93  and  _94
REMARK   38  A    between atoms: _94  and  _95
REMARK   39  A    between atoms: _95  and  _96
REMARK   40  A    between atoms: _100  and  _102
REMARK   41  A    between atoms: _102  and  _103
REMARK   42  A    between atoms: _102  and  _105
REMARK   43  A    between atoms: _105  and  _106
REMARK   44  A    between atoms: _108  and  _110
REMARK   45  A    between atoms: _110  and  _111
REMARK   46  A    between atoms: _110  and  _113
REMARK   47  A    between atoms: _116  and  _118
REMARK   48  A    between atoms: _118  and  _119
REMARK   49  A    between atoms: _118  and  _121
REMARK   50  A    between atoms: _123  and  _125
REMARK   51  A    between atoms: _125  and  _126
REMARK   52  A    between atoms: _125  and  _128
REMARK   53  A    between atoms: _130  and  _132
REMARK   54  A    between atoms: _132  and  _133
REMARK   55  A    between atoms: _132  and  _135
REMARK   56  A    between atoms: _135  and  _136
REMARK   57  A    between atoms: _140  and  CO_321
REMARK   58  A    between atoms: _141  and  _143
REMARK   59  A    between atoms: _143  and  _144
REMARK   60  A    between atoms: _146  and  _148
REMARK   61  A    between atoms: _148  and  _149
REMARK   62  A    between atoms: _148  and  _151
REMARK   63  A    between atoms: _151  and  _152
REMARK   64  A    between atoms: _152  and  _153
REMARK   65  A    between atoms: _153  and  CO_322
REMARK   66  A    between atoms: _155  and  _157
REMARK   67  A    between atoms: _157  and  _158
REMARK   68  A    between atoms: _157  and  _160
REMARK   69  A    between atoms: _160  and  _161
REMARK   70  A    between atoms: _164  and  _166
REMARK   71  A    between atoms: _166  and  _167
REMARK   72  A    between atoms: _166  and  _169
REMARK   73  A    between atoms: _173  and  _175
REMARK   74  A    between atoms: _175  and  _176
REMARK   75  A    between atoms: _175  and  _178
REMARK   76  A    between atoms: _178  and  _179
REMARK   77  A    between atoms: _179  and  _180
REMARK   78  A    between atoms: _183  and  _185
REMARK   79  A    between atoms: _185  and  _186
REMARK   80  A    between atoms: _185  and  _188
REMARK   81  A    between atoms: _188  and  _189
REMARK   82  A    between atoms: _194  and  _195
REMARK   83  A    between atoms: _197  and  _199
REMARK   84  A    between atoms: _199  and  _200
REMARK   85  A    between atoms: _199  and  _202
REMARK   86  A    between atoms: _204  and  _206
REMARK   87  A    between atoms: _206  and  _207
REMARK   88  A    between atoms: _209  and  _211
REMARK   89  A    between atoms: _211  and  _212
REMARK   90  A    between atoms: _211  and  _214
REMARK   91  A    between atoms: _214  and  _215
REMARK   92  A    between atoms: _219  and  CO_323
REMARK   93  A    between atoms: _220  and  _222
REMARK   94  A    between atoms: _222  and  _223
REMARK   95  A    between atoms: _222  and  _225
REMARK   96  A    between atoms: _225  and  _226
REMARK   97  A    between atoms: _232  and  _234
REMARK   98  A    between atoms: _234  and  _235
REMARK   99  A    between atoms: _234  and  _237
REMARK  100  A    between atoms: _237  and  _238
REMARK  101  A    between atoms: _243  and  _245
REMARK  102  A    between atoms: _245  and  _246
REMARK  103  A    between atoms: _245  and  _248
REMARK  104  A    between atoms: _248  and  _249
REMARK  105  A    between atoms: _249  and  _250
REMARK  106  A    between atoms: _255  and  _257
REMARK  107  A    between atoms: _257  and  _258
REMARK  108  A    between atoms: _257  and  _260
REMARK  109  A    between atoms: _260  and  _261
REMARK  110  A    between atoms: _264  and  _266
REMARK  111  A    between atoms: _266  and  _267
REMARK  112  A    between atoms: _266  and  _269
REMARK  113  A    between atoms: _269  and  _270
REMARK  114  A    between atoms: _270  and  _271
REMARK  115  A    between atoms: _271  and  _273
REMARK  116  A    between atoms: _273  and  CO_323
REMARK  117  A    between atoms: _274  and  _276
REMARK  118  A    between atoms: _276  and  _277
REMARK  119  A    between atoms: _276  and  _279
REMARK  120  A    between atoms: _279  and  _280
REMARK  121  A    between atoms: _280  and  _281
REMARK  122  A    between atoms: _283  and  _285
REMARK  123  A    between atoms: _285  and  _286
REMARK  124  A    between atoms: _285  and  _288
REMARK  125  A    between atoms: _288  and  _289
REMARK  126  A    between atoms: _299  and  _301
REMARK  127  A    between atoms: _301  and  _302
REMARK  128  A    between atoms: _301  and  _304
REMARK  129  A    between atoms: _305  and  _306
REMARK  130  A    between atoms: _311  and  _313
REMARK  131  A    between atoms: _313  and  _314
REMARK  132  A    between atoms: _313  and  _316
REMARK  133  A    between atoms: _316  and  _317
REMARK  134  A    between atoms: _317  and  _318
REMARK                            x       y       z     vdW  Elec       q    Type
REMARK                         _______ _______ _______ _____ _____    ______ ____
ROOT
ATOM      1  O   HOH     1      29.184 -16.549   1.519  0.00  0.00    +0.000 OA
ENDROOT
TORSDOF 0
REMARK  Name = ../refined-set-2016/1yvm/1yvm_pocket.pdb
REMARK  134 active torsions:
REMARK  status: ('A' for Active; 'I' for Inactive)
REMARK    1  A    between atoms: _1  and  _3
REMARK    2  A    between atoms: _3  and  _4
REMARK    3  A    between atoms: _3  and  _6
REMARK    4  A    between atoms: _6  and  _7
REMARK    5  A    between atoms: _9  and  _11
REMARK    6  A    between atoms: _11  and  _12
REMARK    7  A    between atoms: _15  and  _17
REMARK    8  A    between atoms: _17  and  _18
REMARK    9  A    between atoms: _17  and  _20
REMARK   10  A    between atoms: _22  and  _24
REMARK   11  A    between atoms: _24  and  _25
REMARK   12  A    between atoms: _24  and  _27
REMARK   13  A    between atoms: _27  and  _28
REMARK   14  A    between atoms: _31  and  _33
REMARK   15  A    between atoms: _33  and  _34
REMARK   16  A    between atoms: _36  and  _38
REMARK   17  A    between atoms: _38  and  _39
REMARK   18  A    between atoms: _38  and  _41
REMARK   19  A    between atoms: _41  and  _42
REMARK   20  A    between atoms: _47  and  _48
REMARK   21  A    between atoms: _50  and  _52
REMARK   22  A    between atoms: _52  and  _53
REMARK   23  A    between atoms: _52  and  _55
REMARK   24  A    between atoms: _55  and  _56
REMARK   25  A    between atoms: _61  and  _63
REMARK   26  A    between atoms: _63  and  _64
REMARK   27  A    between atoms: _66  and  _68
REMARK   28  A    between atoms: _68  and  _69
REMARK   29  A    between atoms: _68  and  _71
REMARK   30  A    between atoms: _71  and  _72
REMARK   31  A    between atoms: _77  and  _78
REMARK   32  A    between atoms: _81  and  _82
REMARK   33  A    between atoms: _87  and  _89
REMARK   34  A    between atoms: _89  and  _90
REMARK   35  A    between atoms: _89  and  _92
REMARK   36  A    between atoms: _92  and  _93
REMARK   37  A    between atoms: _93  and  _94
REMARK   38  A    between atoms: _94  and  _95
REMARK   39  A    between atoms: _95  and  _96
REMARK   40  A    between atoms: _100  and  _102
REMARK   41  A    between atoms: _102  and  _103
REMARK   42  A    between atoms: _102  and  _105
REMARK   43  A    between atoms: _105  and  _106
REMARK   44  A    between atoms: _108  and  _110
REMARK   45  A    between atoms: _110  and  _111
REMARK   46  A    between atoms: _110  and  _113
REMARK   47  A    between atoms: _116  and  _118
REMARK   48  A    between atoms: _118  and  _119
REMARK   49  A    between atoms: _118  and  _121
REMARK   50  A    between atoms: _123  and  _125
REMARK   51  A    between atoms: _125  and  _126
REMARK   52  A    between atoms: _125  and  _128
REMARK   53  A    between atoms: _130  and  _132
REMARK   54  A    between atoms: _132  and  _133
REMARK   55  A    between atoms: _132  and  _135
REMARK   56  A    between atoms: _135  and  _136
REMARK   57  A    between atoms: _140  and  CO_321
REMARK   58  A    between atoms: _141  and  _143
REMARK   59  A    between atoms: _143  and  _144
REMARK   60  A    between atoms: _146  and  _148
REMARK   61  A    between atoms: _148  and  _149
REMARK   62  A    between atoms: _148  and  _151
REMARK   63  A    between atoms: _151  and  _152
REMARK   64  A    between atoms: _152  and  _153
REMARK   65  A    between atoms: _153  and  CO_322
REMARK   66  A    between atoms: _155  and  _157
REMARK   67  A    between atoms: _157  and  _158
REMARK   68  A    between atoms: _157  and  _160
REMARK   69  A    between atoms: _160  and  _161
REMARK   70  A    between atoms: _164  and  _166
REMARK   71  A    between atoms: _166  and  _167
REMARK   72  A    between atoms: _166  and  _169
REMARK   73  A    between atoms: _173  and  _175
REMARK   74  A    between atoms: _175  and  _176
REMARK   75  A    between atoms: _175  and  _178
REMARK   76  A    between atoms: _178  and  _179
REMARK   77  A    between atoms: _179  and  _180
REMARK   78  A    between atoms: _183  and  _185
REMARK   79  A    between atoms: _185  and  _186
REMARK   80  A    between atoms: _185  and  _188
REMARK   81  A    between atoms: _188  and  _189
REMARK   82  A    between atoms: _194  and  _195
REMARK   83  A    between atoms: _197  and  _199
REMARK   84  A    between atoms: _199  and  _200
REMARK   85  A    between atoms: _199  and  _202
REMARK   86  A    between atoms: _204  and  _206
REMARK   87  A    between atoms: _206  and  _207
REMARK   88  A    between atoms: _209  and  _211
REMARK   89  A    between atoms: _211  and  _212
REMARK   90  A    between atoms: _211  and  _214
REMARK   91  A    between atoms: _214  and  _215
REMARK   92  A    between atoms: _219  and  CO_323
REMARK   93  A    between atoms: _220  and  _222
REMARK   94  A    between atoms: _222  and  _223
REMARK   95  A    between atoms: _222  and  _225
REMARK   96  A    between atoms: _225  and  _226
REMARK   97  A    between atoms: _232  and  _234
REMARK   98  A    between atoms: _234  and  _235
REMARK   99  A    between atoms: _234  and  _237
REMARK  100  A    between atoms: _237  and  _238
REMARK  101  A    between atoms: _243  and  _245
REMARK  102  A    between atoms: _245  and  _246
REMARK  103  A    between atoms: _245  and  _248
REMARK  104  A    between atoms: _248  and  _249
REMARK  105  A    between atoms: _249  and  _250
REMARK  106  A    between atoms: _255  and  _257
REMARK  107  A    between atoms: _257  and  _258
REMARK  108  A    between atoms: _257  and  _260
REMARK  109  A    between atoms: _260  and  _261
REMARK  110  A    between atoms: _264  and  _266
REMARK  111  A    between atoms: _266  and  _267
REMARK  112  A    between atoms: _266  and  _269
REMARK  113  A    between atoms: _269  and  _270
REMARK  114  A    between atoms: _270  and  _271
REMARK  115  A    between atoms: _271  and  _273
REMARK  116  A    between atoms: _273  and  CO_323
REMARK  117  A    between atoms: _274  and  _276
REMARK  118  A    between atoms: _276  and  _277
REMARK  119  A    between atoms: _276  and  _279
REMARK  120  A    between atoms: _279  and  _280
REMARK  121  A    between atoms: _280  and  _281
REMARK  122  A    between atoms: _283  and  _285
REMARK  123  A    between atoms: _285  and  _286
REMARK  124  A    between atoms: _285  and  _288
REMARK  125  A    between atoms: _288  and  _289
REMARK  126  A    between atoms: _299  and  _301
REMARK  127  A    between atoms: _301  and  _302
REMARK  128  A    between atoms: _301  and  _304
REMARK  129  A    between atoms: _305  and  _306
REMARK  130  A    between atoms: _311  and  _313
REMARK  131  A    between atoms: _313  and  _314
REMARK  132  A    between atoms: _313  and  _316
REMARK  133  A    between atoms: _316  and  _317
REMARK  134  A    between atoms: _317  and  _318
REMARK                            x       y       z     vdW  Elec       q    Type
REMARK                         _______ _______ _______ _____ _____    ______ ____
ROOT
ATOM      1  O   HOH     1      19.668  -9.696   0.363  0.00  0.00    +0.000 OA
ENDROOT
TORSDOF 0
