REMARK  Name = ../refined-set-2016/2q8h/2q8h_pocket.pdb
REMARK  140 active torsions:
REMARK  status: ('A' for Active; 'I' for Inactive)
REMARK    1  A    between atoms: _1  and  _3
REMARK    2  A    between atoms: _3  and  _4
REMARK    3  A    between atoms: _3  and  _6
REMARK    4  A    between atoms: _6  and  _7
REMARK    5  A    between atoms: _10  and  _12
REMARK    6  A    between atoms: _12  and  _13
REMARK    7  A    between atoms: _12  and  _15
REMARK    8  A    between atoms: _15  and  _16
REMARK    9  A    between atoms: _16  and  _17
REMARK   10  A    between atoms: _17  and  _18
REMARK   11  A    between atoms: _27  and  _29
REMARK   12  A    between atoms: _29  and  _30
REMARK   13  A    between atoms: _29  and  _32
REMARK   14  A    between atoms: _32  and  _33
REMARK   15  A    between atoms: _36  and  _38
REMARK   16  A    between atoms: _38  and  _39
REMARK   17  A    between atoms: _38  and  _41
REMARK   18  A    between atoms: _41  and  _42
REMARK   19  A    between atoms: _45  and  _47
REMARK   20  A    between atoms: _47  and  _48
REMARK   21  A    between atoms: _47  and  _50
REMARK   22  A    between atoms: _50  and  _51
REMARK   23  A    between atoms: _51  and  _52
REMARK   24  A    between atoms: _54  and  _56
REMARK   25  A    between atoms: _56  and  _57
REMARK   26  A    between atoms: _56  and  _59
REMARK   27  A    between atoms: _62  and  _64
REMARK   28  A    between atoms: _64  and  _65
REMARK   29  A    between atoms: _64  and  _67
REMARK   30  A    between atoms: _67  and  _68
REMARK   31  A    between atoms: _78  and  _80
REMARK   32  A    between atoms: _80  and  _81
REMARK   33  A    between atoms: _80  and  _83
REMARK   34  A    between atoms: _83  and  _84
REMARK   35  A    between atoms: _89  and  _90
REMARK   36  A    between atoms: _92  and  _94
REMARK   37  A    between atoms: _94  and  _95
REMARK   38  A    between atoms: _94  and  _97
REMARK   39  A    between atoms: _97  and  _98
REMARK   40  A    between atoms: _100  and  _102
REMARK   41  A    between atoms: _102  and  _103
REMARK   42  A    between atoms: _102  and  _105
REMARK   43  A    between atoms: _105  and  _106
REMARK   44  A    between atoms: _109  and  _111
REMARK   45  A    between atoms: _111  and  _112
REMARK   46  A    between atoms: _111  and  _114
REMARK   47  A    between atoms: _114  and  _115
REMARK   48  A    between atoms: _118  and  _120
REMARK   49  A    between atoms: _120  and  _121
REMARK   50  A    between atoms: _120  and  _123
REMARK   51  A    between atoms: _126  and  _128
REMARK   52  A    between atoms: _128  and  _129
REMARK   53  A    between atoms: _128  and  _131
REMARK   54  A    between atoms: _131  and  _132
REMARK   55  A    between atoms: _135  and  _137
REMARK   56  A    between atoms: _137  and  _138
REMARK   57  A    between atoms: _137  and  _140
REMARK   58  A    between atoms: _140  and  _141
REMARK   59  A    between atoms: _141  and  _142
REMARK   60  A    between atoms: _142  and  _143
REMARK   61  A    between atoms: _152  and  _154
REMARK   62  A    between atoms: _154  and  _155
REMARK   63  A    between atoms: _154  and  _157
REMARK   64  A    between atoms: _157  and  _158
REMARK   65  A    between atoms: _158  and  _159
REMARK   66  A    between atoms: _159  and  _160
REMARK   67  A    between atoms: _169  and  _171
REMARK   68  A    between atoms: _171  and  _172
REMARK   69  A    between atoms: _171  and  _174
REMARK   70  A    between atoms: _174  and  _175
REMARK   71  A    between atoms: _180  and  _182
REMARK   72  A    between atoms: _182  and  _183
REMARK   73  A    between atoms: _182  and  _185
REMARK   74  A    between atoms: _185  and  _186
REMARK   75  A    between atoms: _191  and  _193
REMARK   76  A    between atoms: _193  and  _194
REMARK   77  A    between atoms: _193  and  _196
REMARK   78  A    between atoms: _196  and  _197
REMARK   79  A    between atoms: _200  and  _202
REMARK   80  A    between atoms: _202  and  _203
REMARK   81  A    between atoms: _202  and  _205
REMARK   82  A    between atoms: _208  and  _210
REMARK   83  A    between atoms: _210  and  _211
REMARK   84  A    between atoms: _210  and  _213
REMARK   85  A    between atoms: _213  and  _214
REMARK   86  A    between atoms: _217  and  _219
REMARK   87  A    between atoms: _219  and  _220
REMARK   88  A    between atoms: _219  and  _222
REMARK   89  A    between atoms: _222  and  _223
REMARK   90  A    between atoms: _229  and  _231
REMARK   91  A    between atoms: _231  and  _232
REMARK   92  A    between atoms: _231  and  _234
REMARK   93  A    between atoms: _234  and  _235
REMARK   94  A    between atoms: _240  and  _241
REMARK   95  A    between atoms: _243  and  _245
REMARK   96  A    between atoms: _245  and  _246
REMARK   97  A    between atoms: _245  and  _248
REMARK   98  A    between atoms: _248  and  _249
REMARK   99  A    between atoms: _249  and  _250
REMARK  100  A    between atoms: _252  and  _254
REMARK  101  A    between atoms: _254  and  _255
REMARK  102  A    between atoms: _254  and  _257
REMARK  103  A    between atoms: _257  and  _258
REMARK  104  A    between atoms: _260  and  _262
REMARK  105  A    between atoms: _262  and  _263
REMARK  106  A    between atoms: _262  and  _265
REMARK  107  A    between atoms: _265  and  _266
REMARK  108  A    between atoms: _266  and  _267
REMARK  109  A    between atoms: _267  and  _268
REMARK  110  A    between atoms: _277  and  _279
REMARK  111  A    between atoms: _279  and  _280
REMARK  112  A    between atoms: _279  and  _282
REMARK  113  A    between atoms: _282  and  _283
REMARK  114  A    between atoms: _286  and  _288
REMARK  115  A    between atoms: _288  and  _289
REMARK  116  A    between atoms: _288  and  _291
REMARK  117  A    between atoms: _291  and  _292
REMARK  118  A    between atoms: _294  and  _296
REMARK  119  A    between atoms: _296  and  _297
REMARK  120  A    between atoms: _296  and  _299
REMARK  121  A    between atoms: _299  and  _300
REMARK  122  A    between atoms: _303  and  _305
REMARK  123  A    between atoms: _305  and  _306
REMARK  124  A    between atoms: _305  and  _308
REMARK  125  A    between atoms: _308  and  _309
REMARK  126  A    between atoms: _309  and  _310
REMARK  127  A    between atoms: _310  and  _311
REMARK  128  A    between atoms: _320  and  _322
REMARK  129  A    between atoms: _322  and  _323
REMARK  130  A    between atoms: _322  and  _325
REMARK  131  A    between atoms: _325  and  _326
REMARK  132  A    between atoms: _326  and  _327
REMARK  133  A    between atoms: _329  and  _331
REMARK  134  A    between atoms: _331  and  _332
REMARK  135  A    between atoms: _331  and  _334
REMARK  136  A    between atoms: _334  and  _335
REMARK  137  A    between atoms: _338  and  _340
REMARK  138  A    between atoms: _340  and  _341
REMARK  139  A    between atoms: _340  and  _343
REMARK  140  A    between atoms: _343  and  _344
REMARK                            x       y       z     vdW  Elec       q    Type
REMARK                         _______ _______ _______ _____ _____    ______ ____
ROOT
ATOM      1  CA  LEU A   1       2.745  44.487  -2.499  0.00  0.00    +0.133 C 
ENDROOT
BRANCH   1   2
ATOM      2  N   LEU A   1       2.785  44.864  -1.078  0.00  0.00    -0.239 NA
ATOM      3  H   LEU A   1       2.087  45.527  -0.684  0.00  0.00    +0.142 HD
ENDBRANCH   1   2
BRANCH   1   4
ATOM      4  C   LEU A   1       3.964  45.003  -3.278  0.00  0.00    +0.224 C 
ATOM      5  O   LEU A   1       4.586  44.217  -3.970  0.00  0.00    -0.287 OA
ENDBRANCH   1   4
BRANCH   1   6
ATOM      6  CB  LEU A   1       1.426  44.848  -3.176  0.00  0.00    +0.025 C 
BRANCH   6   7
ATOM      7  CG  LEU A   1       0.269  43.868  -2.892  0.00  0.00    +0.002 C 
ATOM      8  CD2 LEU A   1       0.486  42.440  -3.434  0.00  0.00    +0.000 C 
ATOM      9  CD1 LEU A   1      -1.014  44.451  -3.436  0.00  0.00    +0.000 C 
ENDBRANCH   6   7
ENDBRANCH   1   6
TORSDOF 4
REMARK  Name = ../refined-set-2016/2q8h/2q8h_pocket.pdb
REMARK  140 active torsions:
REMARK  status: ('A' for Active; 'I' for Inactive)
REMARK    1  A    between atoms: _1  and  _3
REMARK    2  A    between atoms: _3  and  _4
REMARK    3  A    between atoms: _3  and  _6
REMARK    4  A    between atoms: _6  and  _7
REMARK    5  A    between atoms: _10  and  _12
REMARK    6  A    between atoms: _12  and  _13
REMARK    7  A    between atoms: _12  and  _15
REMARK    8  A    between atoms: _15  and  _16
REMARK    9  A    between atoms: _16  and  _17
REMARK   10  A    between atoms: _17  and  _18
REMARK   11  A    between atoms: _27  and  _29
REMARK   12  A    between atoms: _29  and  _30
REMARK   13  A    between atoms: _29  and  _32
REMARK   14  A    between atoms: _32  and  _33
REMARK   15  A    between atoms: _36  and  _38
REMARK   16  A    between atoms: _38  and  _39
REMARK   17  A    between atoms: _38  and  _41
REMARK   18  A    between atoms: _41  and  _42
REMARK   19  A    between atoms: _45  and  _47
REMARK   20  A    between atoms: _47  and  _48
REMARK   21  A    between atoms: _47  and  _50
REMARK   22  A    between atoms: _50  and  _51
REMARK   23  A    between atoms: _51  and  _52
REMARK   24  A    between atoms: _54  and  _56
REMARK   25  A    between atoms: _56  and  _57
REMARK   26  A    between atoms: _56  and  _59
REMARK   27  A    between atoms: _62  and  _64
REMARK   28  A    between atoms: _64  and  _65
REMARK   29  A    between atoms: _64  and  _67
REMARK   30  A    between atoms: _67  and  _68
REMARK   31  A    between atoms: _78  and  _80
REMARK   32  A    between atoms: _80  and  _81
REMARK   33  A    between atoms: _80  and  _83
REMARK   34  A    between atoms: _83  and  _84
REMARK   35  A    between atoms: _89  and  _90
REMARK   36  A    between atoms: _92  and  _94
REMARK   37  A    between atoms: _94  and  _95
REMARK   38  A    between atoms: _94  and  _97
REMARK   39  A    between atoms: _97  and  _98
REMARK   40  A    between atoms: _100  and  _102
REMARK   41  A    between atoms: _102  and  _103
REMARK   42  A    between atoms: _102  and  _105
REMARK   43  A    between atoms: _105  and  _106
REMARK   44  A    between atoms: _109  and  _111
REMARK   45  A    between atoms: _111  and  _112
REMARK   46  A    between atoms: _111  and  _114
REMARK   47  A    between atoms: _114  and  _115
REMARK   48  A    between atoms: _118  and  _120
REMARK   49  A    between atoms: _120  and  _121
REMARK   50  A    between atoms: _120  and  _123
REMARK   51  A    between atoms: _126  and  _128
REMARK   52  A    between atoms: _128  and  _129
REMARK   53  A    between atoms: _128  and  _131
REMARK   54  A    between atoms: _131  and  _132
REMARK   55  A    between atoms: _135  and  _137
REMARK   56  A    between atoms: _137  and  _138
REMARK   57  A    between atoms: _137  and  _140
REMARK   58  A    between atoms: _140  and  _141
REMARK   59  A    between atoms: _141  and  _142
REMARK   60  A    between atoms: _142  and  _143
REMARK   61  A    between atoms: _152  and  _154
REMARK   62  A    between atoms: _154  and  _155
REMARK   63  A    between atoms: _154  and  _157
REMARK   64  A    between atoms: _157  and  _158
REMARK   65  A    between atoms: _158  and  _159
REMARK   66  A    between atoms: _159  and  _160
REMARK   67  A    between atoms: _169  and  _171
REMARK   68  A    between atoms: _171  and  _172
REMARK   69  A    between atoms: _171  and  _174
REMARK   70  A    between atoms: _174  and  _175
REMARK   71  A    between atoms: _180  and  _182
REMARK   72  A    between atoms: _182  and  _183
REMARK   73  A    between atoms: _182  and  _185
REMARK   74  A    between atoms: _185  and  _186
REMARK   75  A    between atoms: _191  and  _193
REMARK   76  A    between atoms: _193  and  _194
REMARK   77  A    between atoms: _193  and  _196
REMARK   78  A    between atoms: _196  and  _197
REMARK   79  A    between atoms: _200  and  _202
REMARK   80  A    between atoms: _202  and  _203
REMARK   81  A    between atoms: _202  and  _205
REMARK   82  A    between atoms: _208  and  _210
REMARK   83  A    between atoms: _210  and  _211
REMARK   84  A    between atoms: _210  and  _213
REMARK   85  A    between atoms: _213  and  _214
REMARK   86  A    between atoms: _217  and  _219
REMARK   87  A    between atoms: _219  and  _220
REMARK   88  A    between atoms: _219  and  _222
REMARK   89  A    between atoms: _222  and  _223
REMARK   90  A    between atoms: _229  and  _231
REMARK   91  A    between atoms: _231  and  _232
REMARK   92  A    between atoms: _231  and  _234
REMARK   93  A    between atoms: _234  and  _235
REMARK   94  A    between atoms: _240  and  _241
REMARK   95  A    between atoms: _243  and  _245
REMARK   96  A    between atoms: _245  and  _246
REMARK   97  A    between atoms: _245  and  _248
REMARK   98  A    between atoms: _248  and  _249
REMARK   99  A    between atoms: _249  and  _250
REMARK  100  A    between atoms: _252  and  _254
REMARK  101  A    between atoms: _254  and  _255
REMARK  102  A    between atoms: _254  and  _257
REMARK  103  A    between atoms: _257  and  _258
REMARK  104  A    between atoms: _260  and  _262
REMARK  105  A    between atoms: _262  and  _263
REMARK  106  A    between atoms: _262  and  _265
REMARK  107  A    between atoms: _265  and  _266
REMARK  108  A    between atoms: _266  and  _267
REMARK  109  A    between atoms: _267  and  _268
REMARK  110  A    between atoms: _277  and  _279
REMARK  111  A    between atoms: _279  and  _280
REMARK  112  A    between atoms: _279  and  _282
REMARK  113  A    between atoms: _282  and  _283
REMARK  114  A    between atoms: _286  and  _288
REMARK  115  A    between atoms: _288  and  _289
REMARK  116  A    between atoms: _288  and  _291
REMARK  117  A    between atoms: _291  and  _292
REMARK  118  A    between atoms: _294  and  _296
REMARK  119  A    between atoms: _296  and  _297
REMARK  120  A    between atoms: _296  and  _299
REMARK  121  A    between atoms: _299  and  _300
REMARK  122  A    between atoms: _303  and  _305
REMARK  123  A    between atoms: _305  and  _306
REMARK  124  A    between atoms: _305  and  _308
REMARK  125  A    between atoms: _308  and  _309
REMARK  126  A    between atoms: _309  and  _310
REMARK  127  A    between atoms: _310  and  _311
REMARK  128  A    between atoms: _320  and  _322
REMARK  129  A    between atoms: _322  and  _323
REMARK  130  A    between atoms: _322  and  _325
REMARK  131  A    between atoms: _325  and  _326
REMARK  132  A    between atoms: _326  and  _327
REMARK  133  A    between atoms: _329  and  _331
REMARK  134  A    between atoms: _331  and  _332
REMARK  135  A    between atoms: _331  and  _334
REMARK  136  A    between atoms: _334  and  _335
REMARK  137  A    between atoms: _338  and  _340
REMARK  138  A    between atoms: _340  and  _341
REMARK  139  A    between atoms: _340  and  _343
REMARK  140  A    between atoms: _343  and  _344
REMARK                            x       y       z     vdW  Elec       q    Type
REMARK                         _______ _______ _______ _____ _____    ______ ____
ROOT
ATOM      1  CA  ARG A   1       6.920  41.469  -2.917  0.00  0.00    +0.145 C 
ENDROOT
BRANCH   1   2
ATOM      2  C   ARG A   1       7.205  41.557  -4.429  0.00  0.00    +0.238 C 
ATOM      3  O   ARG A   1       7.992  40.766  -4.953  0.00  0.00    -0.274 OA
ATOM      4  N   LEU A   2       6.551  42.493  -5.113  0.00  0.00    -0.298 N 
ATOM      5  H   LEU A   2       5.827  43.063  -4.631  0.00  0.00    +0.150 HD
BRANCH   4   6
ATOM      6  CA  LEU A   2       6.830  42.737  -6.531  0.00  0.00    +0.137 C 
BRANCH   6   7
ATOM      7  C   LEU A   2       8.312  43.074  -6.759  0.00  0.00    +0.227 C 
ATOM      8  O   LEU A   2       8.987  42.425  -7.558  0.00  0.00    -0.286 OA
ENDBRANCH   6   7
BRANCH   6   9
ATOM      9  CB  LEU A   2       5.894  43.807  -7.096  0.00  0.00    +0.028 C 
BRANCH   9  10
ATOM     10  CG  LEU A   2       4.466  43.291  -7.264  0.00  0.00    +0.002 C 
ATOM     11  CD2 LEU A   2       3.527  44.448  -7.533  0.00  0.00    +0.000 C 
ATOM     12  CD1 LEU A   2       4.415  42.325  -8.377  0.00  0.00    +0.000 C 
ENDBRANCH   9  10
ENDBRANCH   6   9
ENDBRANCH   4   6
ENDBRANCH   1   2
BRANCH   1  13
ATOM     13  N   ARG A   1       6.963  42.767  -2.244  0.00  0.00    -0.238 NA
ATOM     14  H   ARG A   1       6.105  43.132  -1.783  0.00  0.00    +0.142 HD
ENDBRANCH   1  13
BRANCH   1  15
ATOM     15  CB  ARG A   1       5.587  40.774  -2.641  0.00  0.00    +0.030 C 
BRANCH  15  16
ATOM     16  CG  ARG A   1       5.503  40.355  -1.175  0.00  0.00    +0.045 C 
BRANCH  16  17
ATOM     17  CD  ARG A   1       4.435  39.320  -0.956  0.00  0.00    +0.174 C 
BRANCH  17  18
ATOM     18  NE  ARG A   1       4.163  39.186   0.469  0.00  0.00    -0.265 N 
ATOM     19  HE  ARG A   1       4.625  39.859   1.113  0.00  0.00    +0.259 HD
ATOM     20  CZ  ARG A   1       3.368  38.267   1.007  0.00  0.00    +0.342 C 
ATOM     21  NH2 ARG A   1       3.200  38.261   2.328  0.00  0.00    -0.292 N 
ATOM     22 HH21 ARG A   1       3.686  38.967   2.917  0.00  0.00    +0.255 HD
ATOM     23 HH22 ARG A   1       2.582  37.551   2.770  0.00  0.00    +0.255 HD
ATOM     24  NH1 ARG A   1       2.726  37.372   0.245  0.00  0.00    -0.292 N 
ATOM     25 HH11 ARG A   1       2.108  36.661   0.686  0.00  0.00    +0.255 HD
ATOM     26 HH12 ARG A   1       2.845  37.388  -0.788  0.00  0.00    +0.255 HD
ENDBRANCH  17  18
ENDBRANCH  16  17
ENDBRANCH  15  16
ENDBRANCH   1  15
TORSDOF 10
REMARK  Name = ../refined-set-2016/2q8h/2q8h_pocket.pdb
REMARK  140 active torsions:
REMARK  status: ('A' for Active; 'I' for Inactive)
REMARK    1  A    between atoms: _1  and  _3
REMARK    2  A    between atoms: _3  and  _4
REMARK    3  A    between atoms: _3  and  _6
REMARK    4  A    between atoms: _6  and  _7
REMARK    5  A    between atoms: _10  and  _12
REMARK    6  A    between atoms: _12  and  _13
REMARK    7  A    between atoms: _12  and  _15
REMARK    8  A    between atoms: _15  and  _16
REMARK    9  A    between atoms: _16  and  _17
REMARK   10  A    between atoms: _17  and  _18
REMARK   11  A    between atoms: _27  and  _29
REMARK   12  A    between atoms: _29  and  _30
REMARK   13  A    between atoms: _29  and  _32
REMARK   14  A    between atoms: _32  and  _33
REMARK   15  A    between atoms: _36  and  _38
REMARK   16  A    between atoms: _38  and  _39
REMARK   17  A    between atoms: _38  and  _41
REMARK   18  A    between atoms: _41  and  _42
REMARK   19  A    between atoms: _45  and  _47
REMARK   20  A    between atoms: _47  and  _48
REMARK   21  A    between atoms: _47  and  _50
REMARK   22  A    between atoms: _50  and  _51
REMARK   23  A    between atoms: _51  and  _52
REMARK   24  A    between atoms: _54  and  _56
REMARK   25  A    between atoms: _56  and  _57
REMARK   26  A    between atoms: _56  and  _59
REMARK   27  A    between atoms: _62  and  _64
REMARK   28  A    between atoms: _64  and  _65
REMARK   29  A    between atoms: _64  and  _67
REMARK   30  A    between atoms: _67  and  _68
REMARK   31  A    between atoms: _78  and  _80
REMARK   32  A    between atoms: _80  and  _81
REMARK   33  A    between atoms: _80  and  _83
REMARK   34  A    between atoms: _83  and  _84
REMARK   35  A    between atoms: _89  and  _90
REMARK   36  A    between atoms: _92  and  _94
REMARK   37  A    between atoms: _94  and  _95
REMARK   38  A    between atoms: _94  and  _97
REMARK   39  A    between atoms: _97  and  _98
REMARK   40  A    between atoms: _100  and  _102
REMARK   41  A    between atoms: _102  and  _103
REMARK   42  A    between atoms: _102  and  _105
REMARK   43  A    between atoms: _105  and  _106
REMARK   44  A    between atoms: _109  and  _111
REMARK   45  A    between atoms: _111  and  _112
REMARK   46  A    between atoms: _111  and  _114
REMARK   47  A    between atoms: _114  and  _115
REMARK   48  A    between atoms: _118  and  _120
REMARK   49  A    between atoms: _120  and  _121
REMARK   50  A    between atoms: _120  and  _123
REMARK   51  A    between atoms: _126  and  _128
REMARK   52  A    between atoms: _128  and  _129
REMARK   53  A    between atoms: _128  and  _131
REMARK   54  A    between atoms: _131  and  _132
REMARK   55  A    between atoms: _135  and  _137
REMARK   56  A    between atoms: _137  and  _138
REMARK   57  A    between atoms: _137  and  _140
REMARK   58  A    between atoms: _140  and  _141
REMARK   59  A    between atoms: _141  and  _142
REMARK   60  A    between atoms: _142  and  _143
REMARK   61  A    between atoms: _152  and  _154
REMARK   62  A    between atoms: _154  and  _155
REMARK   63  A    between atoms: _154  and  _157
REMARK   64  A    between atoms: _157  and  _158
REMARK   65  A    between atoms: _158  and  _159
REMARK   66  A    between atoms: _159  and  _160
REMARK   67  A    between atoms: _169  and  _171
REMARK   68  A    between atoms: _171  and  _172
REMARK   69  A    between atoms: _171  and  _174
REMARK   70  A    between atoms: _174  and  _175
REMARK   71  A    between atoms: _180  and  _182
REMARK   72  A    between atoms: _182  and  _183
REMARK   73  A    between atoms: _182  and  _185
REMARK   74  A    between atoms: _185  and  _186
REMARK   75  A    between atoms: _191  and  _193
REMARK   76  A    between atoms: _193  and  _194
REMARK   77  A    between atoms: _193  and  _196
REMARK   78  A    between atoms: _196  and  _197
REMARK   79  A    between atoms: _200  and  _202
REMARK   80  A    between atoms: _202  and  _203
REMARK   81  A    between atoms: _202  and  _205
REMARK   82  A    between atoms: _208  and  _210
REMARK   83  A    between atoms: _210  and  _211
REMARK   84  A    between atoms: _210  and  _213
REMARK   85  A    between atoms: _213  and  _214
REMARK   86  A    between atoms: _217  and  _219
REMARK   87  A    between atoms: _219  and  _220
REMARK   88  A    between atoms: _219  and  _222
REMARK   89  A    between atoms: _222  and  _223
REMARK   90  A    between atoms: _229  and  _231
REMARK   91  A    between atoms: _231  and  _232
REMARK   92  A    between atoms: _231  and  _234
REMARK   93  A    between atoms: _234  and  _235
REMARK   94  A    between atoms: _240  and  _241
REMARK   95  A    between atoms: _243  and  _245
REMARK   96  A    between atoms: _245  and  _246
REMARK   97  A    between atoms: _245  and  _248
REMARK   98  A    between atoms: _248  and  _249
REMARK   99  A    between atoms: _249  and  _250
REMARK  100  A    between atoms: _252  and  _254
REMARK  101  A    between atoms: _254  and  _255
REMARK  102  A    between atoms: _254  and  _257
REMARK  103  A    between atoms: _257  and  _258
REMARK  104  A    between atoms: _260  and  _262
REMARK  105  A    between atoms: _262  and  _263
REMARK  106  A    between atoms: _262  and  _265
REMARK  107  A    between atoms: _265  and  _266
REMARK  108  A    between atoms: _266  and  _267
REMARK  109  A    between atoms: _267  and  _268
REMARK  110  A    between atoms: _277  and  _279
REMARK  111  A    between atoms: _279  and  _280
REMARK  112  A    between atoms: _279  and  _282
REMARK  113  A    between atoms: _282  and  _283
REMARK  114  A    between atoms: _286  and  _288
REMARK  115  A    between atoms: _288  and  _289
REMARK  116  A    between atoms: _288  and  _291
REMARK  117  A    between atoms: _291  and  _292
REMARK  118  A    between atoms: _294  and  _296
REMARK  119  A    between atoms: _296  and  _297
REMARK  120  A    between atoms: _296  and  _299
REMARK  121  A    between atoms: _299  and  _300
REMARK  122  A    between atoms: _303  and  _305
REMARK  123  A    between atoms: _305  and  _306
REMARK  124  A    between atoms: _305  and  _308
REMARK  125  A    between atoms: _308  and  _309
REMARK  126  A    between atoms: _309  and  _310
REMARK  127  A    between atoms: _310  and  _311
REMARK  128  A    between atoms: _320  and  _322
REMARK  129  A    between atoms: _322  and  _323
REMARK  130  A    between atoms: _322  and  _325
REMARK  131  A    between atoms: _325  and  _326
REMARK  132  A    between atoms: _326  and  _327
REMARK  133  A    between atoms: _329  and  _331
REMARK  134  A    between atoms: _331  and  _332
REMARK  135  A    between atoms: _331  and  _334
REMARK  136  A    between atoms: _334  and  _335
REMARK  137  A    between atoms: _338  and  _340
REMARK  138  A    between atoms: _340  and  _341
REMARK  139  A    between atoms: _340  and  _343
REMARK  140  A    between atoms: _343  and  _344
REMARK                            x       y       z     vdW  Elec       q    Type
REMARK                         _______ _______ _______ _____ _____    ______ ____
ROOT
ATOM      1  C   ILE A   1      11.526  39.736  -8.714  0.00  0.00    +0.238 C 
ATOM      2  N   MET A   2      11.209  41.012  -8.921  0.00  0.00    -0.298 N 
ATOM      3  H   MET A   2      10.622  41.507  -8.219  0.00  0.00    +0.150 HD
ATOM      4  O   ILE A   1      12.231  39.081  -9.494  0.00  0.00    -0.274 OA
ENDROOT
BRANCH   1   5
ATOM      5  CA  ILE A   1      11.008  39.090  -7.408  0.00  0.00    +0.145 C 
BRANCH   5   6
ATOM      6  N   ILE A   1      11.004  40.022  -6.253  0.00  0.00    -0.238 NA
ATOM      7  H   ILE A   1      10.098  40.316  -5.837  0.00  0.00    +0.142 HD
ENDBRANCH   5   6
BRANCH   5   8
ATOM      8  CB  ILE A   1       9.680  38.312  -7.601  0.00  0.00    +0.025 C 
ATOM      9  CG2 ILE A   1       8.570  39.175  -8.228  0.00  0.00    +0.002 C 
BRANCH   8  10
ATOM     10  CG1 ILE A   1       9.904  37.002  -8.415  0.00  0.00    +0.002 C 
ATOM     11  CD1 ILE A   1      10.935  36.007  -7.782  0.00  0.00    +0.000 C 
ENDBRANCH   8  10
ENDBRANCH   5   8
ENDBRANCH   1   5
BRANCH   2  12
ATOM     12  CA  MET A   2      11.662  41.740 -10.108  0.00  0.00    +0.138 C 
BRANCH  12  13
ATOM     13  C   MET A   2      13.177  41.818 -10.203  0.00  0.00    +0.227 C 
ATOM     14  O   MET A   2      13.710  41.762 -11.308  0.00  0.00    -0.286 OA
ENDBRANCH  12  13
BRANCH  12  15
ATOM     15  CB  MET A   2      11.015  43.119 -10.183  0.00  0.00    +0.039 C 
BRANCH  15  16
ATOM     16  CG  MET A   2       9.486  43.026 -10.455  0.00  0.00    +0.060 C 
BRANCH  16  17
ATOM     17  SD  MET A   2       8.652  44.591 -10.151  0.00  0.00    -0.139 S 
ATOM     18  CE  MET A   2       9.240  45.554 -11.532  0.00  0.00    +0.069 C 
ENDBRANCH  16  17
ENDBRANCH  15  16
ENDBRANCH  12  15
ENDBRANCH   2  12
TORSDOF 9
REMARK  Name = ../refined-set-2016/2q8h/2q8h_pocket.pdb
REMARK  140 active torsions:
REMARK  status: ('A' for Active; 'I' for Inactive)
REMARK    1  A    between atoms: _1  and  _3
REMARK    2  A    between atoms: _3  and  _4
REMARK    3  A    between atoms: _3  and  _6
REMARK    4  A    between atoms: _6  and  _7
REMARK    5  A    between atoms: _10  and  _12
REMARK    6  A    between atoms: _12  and  _13
REMARK    7  A    between atoms: _12  and  _15
REMARK    8  A    between atoms: _15  and  _16
REMARK    9  A    between atoms: _16  and  _17
REMARK   10  A    between atoms: _17  and  _18
REMARK   11  A    between atoms: _27  and  _29
REMARK   12  A    between atoms: _29  and  _30
REMARK   13  A    between atoms: _29  and  _32
REMARK   14  A    between atoms: _32  and  _33
REMARK   15  A    between atoms: _36  and  _38
REMARK   16  A    between atoms: _38  and  _39
REMARK   17  A    between atoms: _38  and  _41
REMARK   18  A    between atoms: _41  and  _42
REMARK   19  A    between atoms: _45  and  _47
REMARK   20  A    between atoms: _47  and  _48
REMARK   21  A    between atoms: _47  and  _50
REMARK   22  A    between atoms: _50  and  _51
REMARK   23  A    between atoms: _51  and  _52
REMARK   24  A    between atoms: _54  and  _56
REMARK   25  A    between atoms: _56  and  _57
REMARK   26  A    between atoms: _56  and  _59
REMARK   27  A    between atoms: _62  and  _64
REMARK   28  A    between atoms: _64  and  _65
REMARK   29  A    between atoms: _64  and  _67
REMARK   30  A    between atoms: _67  and  _68
REMARK   31  A    between atoms: _78  and  _80
REMARK   32  A    between atoms: _80  and  _81
REMARK   33  A    between atoms: _80  and  _83
REMARK   34  A    between atoms: _83  and  _84
REMARK   35  A    between atoms: _89  and  _90
REMARK   36  A    between atoms: _92  and  _94
REMARK   37  A    between atoms: _94  and  _95
REMARK   38  A    between atoms: _94  and  _97
REMARK   39  A    between atoms: _97  and  _98
REMARK   40  A    between atoms: _100  and  _102
REMARK   41  A    between atoms: _102  and  _103
REMARK   42  A    between atoms: _102  and  _105
REMARK   43  A    between atoms: _105  and  _106
REMARK   44  A    between atoms: _109  and  _111
REMARK   45  A    between atoms: _111  and  _112
REMARK   46  A    between atoms: _111  and  _114
REMARK   47  A    between atoms: _114  and  _115
REMARK   48  A    between atoms: _118  and  _120
REMARK   49  A    between atoms: _120  and  _121
REMARK   50  A    between atoms: _120  and  _123
REMARK   51  A    between atoms: _126  and  _128
REMARK   52  A    between atoms: _128  and  _129
REMARK   53  A    between atoms: _128  and  _131
REMARK   54  A    between atoms: _131  and  _132
REMARK   55  A    between atoms: _135  and  _137
REMARK   56  A    between atoms: _137  and  _138
REMARK   57  A    between atoms: _137  and  _140
REMARK   58  A    between atoms: _140  and  _141
REMARK   59  A    between atoms: _141  and  _142
REMARK   60  A    between atoms: _142  and  _143
REMARK   61  A    between atoms: _152  and  _154
REMARK   62  A    between atoms: _154  and  _155
REMARK   63  A    between atoms: _154  and  _157
REMARK   64  A    between atoms: _157  and  _158
REMARK   65  A    between atoms: _158  and  _159
REMARK   66  A    between atoms: _159  and  _160
REMARK   67  A    between atoms: _169  and  _171
REMARK   68  A    between atoms: _171  and  _172
REMARK   69  A    between atoms: _171  and  _174
REMARK   70  A    between atoms: _174  and  _175
REMARK   71  A    between atoms: _180  and  _182
REMARK   72  A    between atoms: _182  and  _183
REMARK   73  A    between atoms: _182  and  _185
REMARK   74  A    between atoms: _185  and  _186
REMARK   75  A    between atoms: _191  and  _193
REMARK   76  A    between atoms: _193  and  _194
REMARK   77  A    between atoms: _193  and  _196
REMARK   78  A    between atoms: _196  and  _197
REMARK   79  A    between atoms: _200  and  _202
REMARK   80  A    between atoms: _202  and  _203
REMARK   81  A    between atoms: _202  and  _205
REMARK   82  A    between atoms: _208  and  _210
REMARK   83  A    between atoms: _210  and  _211
REMARK   84  A    between atoms: _210  and  _213
REMARK   85  A    between atoms: _213  and  _214
REMARK   86  A    between atoms: _217  and  _219
REMARK   87  A    between atoms: _219  and  _220
REMARK   88  A    between atoms: _219  and  _222
REMARK   89  A    between atoms: _222  and  _223
REMARK   90  A    between atoms: _229  and  _231
REMARK   91  A    between atoms: _231  and  _232
REMARK   92  A    between atoms: _231  and  _234
REMARK   93  A    between atoms: _234  and  _235
REMARK   94  A    between atoms: _240  and  _241
REMARK   95  A    between atoms: _243  and  _245
REMARK   96  A    between atoms: _245  and  _246
REMARK   97  A    between atoms: _245  and  _248
REMARK   98  A    between atoms: _248  and  _249
REMARK   99  A    between atoms: _249  and  _250
REMARK  100  A    between atoms: _252  and  _254
REMARK  101  A    between atoms: _254  and  _255
REMARK  102  A    between atoms: _254  and  _257
REMARK  103  A    between atoms: _257  and  _258
REMARK  104  A    between atoms: _260  and  _262
REMARK  105  A    between atoms: _262  and  _263
REMARK  106  A    between atoms: _262  and  _265
REMARK  107  A    between atoms: _265  and  _266
REMARK  108  A    between atoms: _266  and  _267
REMARK  109  A    between atoms: _267  and  _268
REMARK  110  A    between atoms: _277  and  _279
REMARK  111  A    between atoms: _279  and  _280
REMARK  112  A    between atoms: _279  and  _282
REMARK  113  A    between atoms: _282  and  _283
REMARK  114  A    between atoms: _286  and  _288
REMARK  115  A    between atoms: _288  and  _289
REMARK  116  A    between atoms: _288  and  _291
REMARK  117  A    between atoms: _291  and  _292
REMARK  118  A    between atoms: _294  and  _296
REMARK  119  A    between atoms: _296  and  _297
REMARK  120  A    between atoms: _296  and  _299
REMARK  121  A    between atoms: _299  and  _300
REMARK  122  A    between atoms: _303  and  _305
REMARK  123  A    between atoms: _305  and  _306
REMARK  124  A    between atoms: _305  and  _308
REMARK  125  A    between atoms: _308  and  _309
REMARK  126  A    between atoms: _309  and  _310
REMARK  127  A    between atoms: _310  and  _311
REMARK  128  A    between atoms: _320  and  _322
REMARK  129  A    between atoms: _322  and  _323
REMARK  130  A    between atoms: _322  and  _325
REMARK  131  A    between atoms: _325  and  _326
REMARK  132  A    between atoms: _326  and  _327
REMARK  133  A    between atoms: _329  and  _331
REMARK  134  A    between atoms: _331  and  _332
REMARK  135  A    between atoms: _331  and  _334
REMARK  136  A    between atoms: _334  and  _335
REMARK  137  A    between atoms: _338  and  _340
REMARK  138  A    between atoms: _340  and  _341
REMARK  139  A    between atoms: _340  and  _343
REMARK  140  A    between atoms: _343  and  _344
REMARK                            x       y       z     vdW  Elec       q    Type
REMARK                         _______ _______ _______ _____ _____    ______ ____
ROOT
ATOM      1  CA  VAL A   1       5.623  39.314 -18.014  0.00  0.00    +0.133 C 
ENDROOT
BRANCH   1   2
ATOM      2  CB  VAL A   1       6.107  37.922 -17.541  0.00  0.00    +0.023 C 
ATOM      3  CG2 VAL A   1       6.114  37.856 -16.003  0.00  0.00    +0.002 C 
ATOM      4  CG1 VAL A   1       5.254  36.822 -18.134  0.00  0.00    +0.002 C 
ENDBRANCH   1   2
BRANCH   1   5
ATOM      5  N   VAL A   1       5.841  39.515 -19.454  0.00  0.00    -0.239 NA
ATOM      6  H   VAL A   1       6.316  38.769 -20.002  0.00  0.00    +0.142 HD
ENDBRANCH   1   5
BRANCH   1   7
ATOM      7  C   VAL A   1       6.306  40.396 -17.160  0.00  0.00    +0.224 C 
ATOM      8  O   VAL A   1       5.704  40.938 -16.215  0.00  0.00    -0.287 OA
ENDBRANCH   1   7
TORSDOF 3
REMARK  Name = ../refined-set-2016/2q8h/2q8h_pocket.pdb
REMARK  140 active torsions:
REMARK  status: ('A' for Active; 'I' for Inactive)
REMARK    1  A    between atoms: _1  and  _3
REMARK    2  A    between atoms: _3  and  _4
REMARK    3  A    between atoms: _3  and  _6
REMARK    4  A    between atoms: _6  and  _7
REMARK    5  A    between atoms: _10  and  _12
REMARK    6  A    between atoms: _12  and  _13
REMARK    7  A    between atoms: _12  and  _15
REMARK    8  A    between atoms: _15  and  _16
REMARK    9  A    between atoms: _16  and  _17
REMARK   10  A    between atoms: _17  and  _18
REMARK   11  A    between atoms: _27  and  _29
REMARK   12  A    between atoms: _29  and  _30
REMARK   13  A    between atoms: _29  and  _32
REMARK   14  A    between atoms: _32  and  _33
REMARK   15  A    between atoms: _36  and  _38
REMARK   16  A    between atoms: _38  and  _39
REMARK   17  A    between atoms: _38  and  _41
REMARK   18  A    between atoms: _41  and  _42
REMARK   19  A    between atoms: _45  and  _47
REMARK   20  A    between atoms: _47  and  _48
REMARK   21  A    between atoms: _47  and  _50
REMARK   22  A    between atoms: _50  and  _51
REMARK   23  A    between atoms: _51  and  _52
REMARK   24  A    between atoms: _54  and  _56
REMARK   25  A    between atoms: _56  and  _57
REMARK   26  A    between atoms: _56  and  _59
REMARK   27  A    between atoms: _62  and  _64
REMARK   28  A    between atoms: _64  and  _65
REMARK   29  A    between atoms: _64  and  _67
REMARK   30  A    between atoms: _67  and  _68
REMARK   31  A    between atoms: _78  and  _80
REMARK   32  A    between atoms: _80  and  _81
REMARK   33  A    between atoms: _80  and  _83
REMARK   34  A    between atoms: _83  and  _84
REMARK   35  A    between atoms: _89  and  _90
REMARK   36  A    between atoms: _92  and  _94
REMARK   37  A    between atoms: _94  and  _95
REMARK   38  A    between atoms: _94  and  _97
REMARK   39  A    between atoms: _97  and  _98
REMARK   40  A    between atoms: _100  and  _102
REMARK   41  A    between atoms: _102  and  _103
REMARK   42  A    between atoms: _102  and  _105
REMARK   43  A    between atoms: _105  and  _106
REMARK   44  A    between atoms: _109  and  _111
REMARK   45  A    between atoms: _111  and  _112
REMARK   46  A    between atoms: _111  and  _114
REMARK   47  A    between atoms: _114  and  _115
REMARK   48  A    between atoms: _118  and  _120
REMARK   49  A    between atoms: _120  and  _121
REMARK   50  A    between atoms: _120  and  _123
REMARK   51  A    between atoms: _126  and  _128
REMARK   52  A    between atoms: _128  and  _129
REMARK   53  A    between atoms: _128  and  _131
REMARK   54  A    between atoms: _131  and  _132
REMARK   55  A    between atoms: _135  and  _137
REMARK   56  A    between atoms: _137  and  _138
REMARK   57  A    between atoms: _137  and  _140
REMARK   58  A    between atoms: _140  and  _141
REMARK   59  A    between atoms: _141  and  _142
REMARK   60  A    between atoms: _142  and  _143
REMARK   61  A    between atoms: _152  and  _154
REMARK   62  A    between atoms: _154  and  _155
REMARK   63  A    between atoms: _154  and  _157
REMARK   64  A    between atoms: _157  and  _158
REMARK   65  A    between atoms: _158  and  _159
REMARK   66  A    between atoms: _159  and  _160
REMARK   67  A    between atoms: _169  and  _171
REMARK   68  A    between atoms: _171  and  _172
REMARK   69  A    between atoms: _171  and  _174
REMARK   70  A    between atoms: _174  and  _175
REMARK   71  A    between atoms: _180  and  _182
REMARK   72  A    between atoms: _182  and  _183
REMARK   73  A    between atoms: _182  and  _185
REMARK   74  A    between atoms: _185  and  _186
REMARK   75  A    between atoms: _191  and  _193
REMARK   76  A    between atoms: _193  and  _194
REMARK   77  A    between atoms: _193  and  _196
REMARK   78  A    between atoms: _196  and  _197
REMARK   79  A    between atoms: _200  and  _202
REMARK   80  A    between atoms: _202  and  _203
REMARK   81  A    between atoms: _202  and  _205
REMARK   82  A    between atoms: _208  and  _210
REMARK   83  A    between atoms: _210  and  _211
REMARK   84  A    between atoms: _210  and  _213
REMARK   85  A    between atoms: _213  and  _214
REMARK   86  A    between atoms: _217  and  _219
REMARK   87  A    between atoms: _219  and  _220
REMARK   88  A    between atoms: _219  and  _222
REMARK   89  A    between atoms: _222  and  _223
REMARK   90  A    between atoms: _229  and  _231
REMARK   91  A    between atoms: _231  and  _232
REMARK   92  A    between atoms: _231  and  _234
REMARK   93  A    between atoms: _234  and  _235
REMARK   94  A    between atoms: _240  and  _241
REMARK   95  A    between atoms: _243  and  _245
REMARK   96  A    between atoms: _245  and  _246
REMARK   97  A    between atoms: _245  and  _248
REMARK   98  A    between atoms: _248  and  _249
REMARK   99  A    between atoms: _249  and  _250
REMARK  100  A    between atoms: _252  and  _254
REMARK  101  A    between atoms: _254  and  _255
REMARK  102  A    between atoms: _254  and  _257
REMARK  103  A    between atoms: _257  and  _258
REMARK  104  A    between atoms: _260  and  _262
REMARK  105  A    between atoms: _262  and  _263
REMARK  106  A    between atoms: _262  and  _265
REMARK  107  A    between atoms: _265  and  _266
REMARK  108  A    between atoms: _266  and  _267
REMARK  109  A    between atoms: _267  and  _268
REMARK  110  A    between atoms: _277  and  _279
REMARK  111  A    between atoms: _279  and  _280
REMARK  112  A    between atoms: _279  and  _282
REMARK  113  A    between atoms: _282  and  _283
REMARK  114  A    between atoms: _286  and  _288
REMARK  115  A    between atoms: _288  and  _289
REMARK  116  A    between atoms: _288  and  _291
REMARK  117  A    between atoms: _291  and  _292
REMARK  118  A    between atoms: _294  and  _296
REMARK  119  A    between atoms: _296  and  _297
REMARK  120  A    between atoms: _296  and  _299
REMARK  121  A    between atoms: _299  and  _300
REMARK  122  A    between atoms: _303  and  _305
REMARK  123  A    between atoms: _305  and  _306
REMARK  124  A    between atoms: _305  and  _308
REMARK  125  A    between atoms: _308  and  _309
REMARK  126  A    between atoms: _309  and  _310
REMARK  127  A    between atoms: _310  and  _311
REMARK  128  A    between atoms: _320  and  _322
REMARK  129  A    between atoms: _322  and  _323
REMARK  130  A    between atoms: _322  and  _325
REMARK  131  A    between atoms: _325  and  _326
REMARK  132  A    between atoms: _326  and  _327
REMARK  133  A    between atoms: _329  and  _331
REMARK  134  A    between atoms: _331  and  _332
REMARK  135  A    between atoms: _331  and  _334
REMARK  136  A    between atoms: _334  and  _335
REMARK  137  A    between atoms: _338  and  _340
REMARK  138  A    between atoms: _340  and  _341
REMARK  139  A    between atoms: _340  and  _343
REMARK  140  A    between atoms: _343  and  _344
REMARK                            x       y       z     vdW  Elec       q    Type
REMARK                         _______ _______ _______ _____ _____    ______ ____
ROOT
ATOM      1  C   TRP A   1       3.540  43.852 -14.933  0.00  0.00    +0.239 C 
ATOM      2  O   TRP A   1       2.823  44.601 -14.253  0.00  0.00    -0.274 OA
ATOM      3  N   TYR A   2       4.656  43.268 -14.478  0.00  0.00    -0.298 N 
ATOM      4  H   TYR A   2       5.180  42.628 -15.108  0.00  0.00    +0.150 HD
ENDROOT
BRANCH   1   5
ATOM      5  CA  TRP A   1       3.172  43.544 -16.389  0.00  0.00    +0.149 C 
BRANCH   5   6
ATOM      6  N   TRP A   1       4.387  43.608 -17.221  0.00  0.00    -0.238 NA
ATOM      7  H   TRP A   1       4.783  42.722 -17.596  0.00  0.00    +0.142 HD
ENDBRANCH   5   6
BRANCH   5   8
ATOM      8  CB  TRP A   1       2.473  42.177 -16.480  0.00  0.00    +0.054 C 
BRANCH   8   9
ATOM      9  CG  TRP A   1       1.882  41.835 -17.869  0.00  0.00    -0.002 A 
ATOM     10  CD2 TRP A   1       1.506  40.534 -18.338  0.00  0.00    +0.013 A 
ATOM     11  CE3 TRP A   1       1.554  39.251 -17.777  0.00  0.00    +0.001 A 
ATOM     12  CZ3 TRP A   1       1.117  38.176 -18.531  0.00  0.00    +0.000 A 
ATOM     13  CH2 TRP A   1       0.637  38.356 -19.832  0.00  0.00    +0.001 A 
ATOM     14  CZ2 TRP A   1       0.574  39.599 -20.407  0.00  0.00    +0.017 A 
ATOM     15  CE2 TRP A   1       1.017  40.684 -19.650  0.00  0.00    +0.056 A 
ATOM     16  NE1 TRP A   1       1.074  42.015 -19.965  0.00  0.00    -0.352 N 
ATOM     17  HE1 TRP A   1       0.779  42.437 -20.868  0.00  0.00    +0.166 HD
ATOM     18  CD1 TRP A   1       1.588  42.703 -18.886  0.00  0.00    +0.068 A 
ENDBRANCH   8   9
ENDBRANCH   5   8
ENDBRANCH   1   5
BRANCH   3  19
ATOM     19  CA  TYR A   2       5.164  43.499 -13.127  0.00  0.00    +0.141 C 
BRANCH  19  20
ATOM     20  C   TYR A   2       5.508  44.968 -12.931  0.00  0.00    +0.227 C 
ATOM     21  O   TYR A   2       5.175  45.544 -11.888  0.00  0.00    -0.286 OA
ENDBRANCH  19  20
BRANCH  19  22
ATOM     22  CB  TYR A   2       6.382  42.610 -12.830  0.00  0.00    +0.054 C 
BRANCH  22  23
ATOM     23  CG  TYR A   2       5.982  41.252 -12.309  0.00  0.00    -0.020 A 
ATOM     24  CD2 TYR A   2       6.249  40.877 -10.983  0.00  0.00    -0.001 A 
ATOM     25  CE2 TYR A   2       5.844  39.641 -10.498  0.00  0.00    +0.036 A 
ATOM     26  CZ  TYR A   2       5.197  38.755 -11.338  0.00  0.00    +0.134 A 
ATOM     27  CE1 TYR A   2       4.945  39.102 -12.652  0.00  0.00    +0.036 A 
ATOM     28  CD1 TYR A   2       5.332  40.341 -13.121  0.00  0.00    -0.001 A 
BRANCH  26  29
ATOM     29  OH  TYR A   2       4.796  37.520 -10.892  0.00  0.00    -0.506 OA
ATOM     30  HH  TYR A   2       5.586  37.009 -10.583  0.00  0.00    +0.292 HD
ENDBRANCH  26  29
ENDBRANCH  22  23
ENDBRANCH  19  22
ENDBRANCH   3  19
TORSDOF 9
REMARK  Name = ../refined-set-2016/2q8h/2q8h_pocket.pdb
REMARK  140 active torsions:
REMARK  status: ('A' for Active; 'I' for Inactive)
REMARK    1  A    between atoms: _1  and  _3
REMARK    2  A    between atoms: _3  and  _4
REMARK    3  A    between atoms: _3  and  _6
REMARK    4  A    between atoms: _6  and  _7
REMARK    5  A    between atoms: _10  and  _12
REMARK    6  A    between atoms: _12  and  _13
REMARK    7  A    between atoms: _12  and  _15
REMARK    8  A    between atoms: _15  and  _16
REMARK    9  A    between atoms: _16  and  _17
REMARK   10  A    between atoms: _17  and  _18
REMARK   11  A    between atoms: _27  and  _29
REMARK   12  A    between atoms: _29  and  _30
REMARK   13  A    between atoms: _29  and  _32
REMARK   14  A    between atoms: _32  and  _33
REMARK   15  A    between atoms: _36  and  _38
REMARK   16  A    between atoms: _38  and  _39
REMARK   17  A    between atoms: _38  and  _41
REMARK   18  A    between atoms: _41  and  _42
REMARK   19  A    between atoms: _45  and  _47
REMARK   20  A    between atoms: _47  and  _48
REMARK   21  A    between atoms: _47  and  _50
REMARK   22  A    between atoms: _50  and  _51
REMARK   23  A    between atoms: _51  and  _52
REMARK   24  A    between atoms: _54  and  _56
REMARK   25  A    between atoms: _56  and  _57
REMARK   26  A    between atoms: _56  and  _59
REMARK   27  A    between atoms: _62  and  _64
REMARK   28  A    between atoms: _64  and  _65
REMARK   29  A    between atoms: _64  and  _67
REMARK   30  A    between atoms: _67  and  _68
REMARK   31  A    between atoms: _78  and  _80
REMARK   32  A    between atoms: _80  and  _81
REMARK   33  A    between atoms: _80  and  _83
REMARK   34  A    between atoms: _83  and  _84
REMARK   35  A    between atoms: _89  and  _90
REMARK   36  A    between atoms: _92  and  _94
REMARK   37  A    between atoms: _94  and  _95
REMARK   38  A    between atoms: _94  and  _97
REMARK   39  A    between atoms: _97  and  _98
REMARK   40  A    between atoms: _100  and  _102
REMARK   41  A    between atoms: _102  and  _103
REMARK   42  A    between atoms: _102  and  _105
REMARK   43  A    between atoms: _105  and  _106
REMARK   44  A    between atoms: _109  and  _111
REMARK   45  A    between atoms: _111  and  _112
REMARK   46  A    between atoms: _111  and  _114
REMARK   47  A    between atoms: _114  and  _115
REMARK   48  A    between atoms: _118  and  _120
REMARK   49  A    between atoms: _120  and  _121
REMARK   50  A    between atoms: _120  and  _123
REMARK   51  A    between atoms: _126  and  _128
REMARK   52  A    between atoms: _128  and  _129
REMARK   53  A    between atoms: _128  and  _131
REMARK   54  A    between atoms: _131  and  _132
REMARK   55  A    between atoms: _135  and  _137
REMARK   56  A    between atoms: _137  and  _138
REMARK   57  A    between atoms: _137  and  _140
REMARK   58  A    between atoms: _140  and  _141
REMARK   59  A    between atoms: _141  and  _142
REMARK   60  A    between atoms: _142  and  _143
REMARK   61  A    between atoms: _152  and  _154
REMARK   62  A    between atoms: _154  and  _155
REMARK   63  A    between atoms: _154  and  _157
REMARK   64  A    between atoms: _157  and  _158
REMARK   65  A    between atoms: _158  and  _159
REMARK   66  A    between atoms: _159  and  _160
REMARK   67  A    between atoms: _169  and  _171
REMARK   68  A    between atoms: _171  and  _172
REMARK   69  A    between atoms: _171  and  _174
REMARK   70  A    between atoms: _174  and  _175
REMARK   71  A    between atoms: _180  and  _182
REMARK   72  A    between atoms: _182  and  _183
REMARK   73  A    between atoms: _182  and  _185
REMARK   74  A    between atoms: _185  and  _186
REMARK   75  A    between atoms: _191  and  _193
REMARK   76  A    between atoms: _193  and  _194
REMARK   77  A    between atoms: _193  and  _196
REMARK   78  A    between atoms: _196  and  _197
REMARK   79  A    between atoms: _200  and  _202
REMARK   80  A    between atoms: _202  and  _203
REMARK   81  A    between atoms: _202  and  _205
REMARK   82  A    between atoms: _208  and  _210
REMARK   83  A    between atoms: _210  and  _211
REMARK   84  A    between atoms: _210  and  _213
REMARK   85  A    between atoms: _213  and  _214
REMARK   86  A    between atoms: _217  and  _219
REMARK   87  A    between atoms: _219  and  _220
REMARK   88  A    between atoms: _219  and  _222
REMARK   89  A    between atoms: _222  and  _223
REMARK   90  A    between atoms: _229  and  _231
REMARK   91  A    between atoms: _231  and  _232
REMARK   92  A    between atoms: _231  and  _234
REMARK   93  A    between atoms: _234  and  _235
REMARK   94  A    between atoms: _240  and  _241
REMARK   95  A    between atoms: _243  and  _245
REMARK   96  A    between atoms: _245  and  _246
REMARK   97  A    between atoms: _245  and  _248
REMARK   98  A    between atoms: _248  and  _249
REMARK   99  A    between atoms: _249  and  _250
REMARK  100  A    between atoms: _252  and  _254
REMARK  101  A    between atoms: _254  and  _255
REMARK  102  A    between atoms: _254  and  _257
REMARK  103  A    between atoms: _257  and  _258
REMARK  104  A    between atoms: _260  and  _262
REMARK  105  A    between atoms: _262  and  _263
REMARK  106  A    between atoms: _262  and  _265
REMARK  107  A    between atoms: _265  and  _266
REMARK  108  A    between atoms: _266  and  _267
REMARK  109  A    between atoms: _267  and  _268
REMARK  110  A    between atoms: _277  and  _279
REMARK  111  A    between atoms: _279  and  _280
REMARK  112  A    between atoms: _279  and  _282
REMARK  113  A    between atoms: _282  and  _283
REMARK  114  A    between atoms: _286  and  _288
REMARK  115  A    between atoms: _288  and  _289
REMARK  116  A    between atoms: _288  and  _291
REMARK  117  A    between atoms: _291  and  _292
REMARK  118  A    between atoms: _294  and  _296
REMARK  119  A    between atoms: _296  and  _297
REMARK  120  A    between atoms: _296  and  _299
REMARK  121  A    between atoms: _299  and  _300
REMARK  122  A    between atoms: _303  and  _305
REMARK  123  A    between atoms: _305  and  _306
REMARK  124  A    between atoms: _305  and  _308
REMARK  125  A    between atoms: _308  and  _309
REMARK  126  A    between atoms: _309  and  _310
REMARK  127  A    between atoms: _310  and  _311
REMARK  128  A    between atoms: _320  and  _322
REMARK  129  A    between atoms: _322  and  _323
REMARK  130  A    between atoms: _322  and  _325
REMARK  131  A    between atoms: _325  and  _326
REMARK  132  A    between atoms: _326  and  _327
REMARK  133  A    between atoms: _329  and  _331
REMARK  134  A    between atoms: _331  and  _332
REMARK  135  A    between atoms: _331  and  _334
REMARK  136  A    between atoms: _334  and  _335
REMARK  137  A    between atoms: _338  and  _340
REMARK  138  A    between atoms: _340  and  _341
REMARK  139  A    between atoms: _340  and  _343
REMARK  140  A    between atoms: _343  and  _344
REMARK                            x       y       z     vdW  Elec       q    Type
REMARK                         _______ _______ _______ _____ _____    ______ ____
ROOT
ATOM      1  C   SER A   1       2.307  47.499 -10.300  0.00  0.00    +0.241 C 
ATOM      2  O   SER A   1       1.630  48.178  -9.526  0.00  0.00    -0.274 OA
ATOM      3  N   LEU A   2       3.630  47.374 -10.187  0.00  0.00    -0.298 N 
ATOM      4  H   LEU A   2       4.125  46.698 -10.803  0.00  0.00    +0.150 HD
ENDROOT
BRANCH   1   5
ATOM      5  CA  SER A   1       1.639  46.747 -11.461  0.00  0.00    +0.174 C 
BRANCH   5   6
ATOM      6  N   SER A   1       2.226  47.020 -12.784  0.00  0.00    -0.236 NA
ATOM      7  H   SER A   1       2.605  46.220 -13.330  0.00  0.00    +0.142 HD
ENDBRANCH   5   6
BRANCH   5   8
ATOM      8  CB  SER A   1       1.648  45.240 -11.193  0.00  0.00    +0.163 C 
BRANCH   8   9
ATOM      9  OG  SER A   1       0.836  44.578 -12.161  0.00  0.00    -0.380 OA
ATOM     10  H   SER A   1       1.195  44.754 -13.067  0.00  0.00    +0.211 HD
ENDBRANCH   8   9
ENDBRANCH   5   8
ENDBRANCH   1   5
BRANCH   3  11
ATOM     11  CA  LEU A   2       4.409  48.157  -9.224  0.00  0.00    +0.137 C 
BRANCH  11  12
ATOM     12  C   LEU A   2       4.109  49.651  -9.282  0.00  0.00    +0.227 C 
ATOM     13  O   LEU A   2       3.848  50.268  -8.252  0.00  0.00    -0.286 OA
ENDBRANCH  11  12
BRANCH  11  14
ATOM     14  CB  LEU A   2       5.923  47.906  -9.383  0.00  0.00    +0.028 C 
BRANCH  14  15
ATOM     15  CG  LEU A   2       6.841  48.560  -8.338  0.00  0.00    +0.002 C 
ATOM     16  CD2 LEU A   2       6.611  47.961  -6.945  0.00  0.00    +0.000 C 
ATOM     17  CD1 LEU A   2       8.318  48.475  -8.737  0.00  0.00    +0.000 C 
ENDBRANCH  14  15
ENDBRANCH  11  14
ENDBRANCH   3  11
TORSDOF 8
REMARK  Name = ../refined-set-2016/2q8h/2q8h_pocket.pdb
REMARK  140 active torsions:
REMARK  status: ('A' for Active; 'I' for Inactive)
REMARK    1  A    between atoms: _1  and  _3
REMARK    2  A    between atoms: _3  and  _4
REMARK    3  A    between atoms: _3  and  _6
REMARK    4  A    between atoms: _6  and  _7
REMARK    5  A    between atoms: _10  and  _12
REMARK    6  A    between atoms: _12  and  _13
REMARK    7  A    between atoms: _12  and  _15
REMARK    8  A    between atoms: _15  and  _16
REMARK    9  A    between atoms: _16  and  _17
REMARK   10  A    between atoms: _17  and  _18
REMARK   11  A    between atoms: _27  and  _29
REMARK   12  A    between atoms: _29  and  _30
REMARK   13  A    between atoms: _29  and  _32
REMARK   14  A    between atoms: _32  and  _33
REMARK   15  A    between atoms: _36  and  _38
REMARK   16  A    between atoms: _38  and  _39
REMARK   17  A    between atoms: _38  and  _41
REMARK   18  A    between atoms: _41  and  _42
REMARK   19  A    between atoms: _45  and  _47
REMARK   20  A    between atoms: _47  and  _48
REMARK   21  A    between atoms: _47  and  _50
REMARK   22  A    between atoms: _50  and  _51
REMARK   23  A    between atoms: _51  and  _52
REMARK   24  A    between atoms: _54  and  _56
REMARK   25  A    between atoms: _56  and  _57
REMARK   26  A    between atoms: _56  and  _59
REMARK   27  A    between atoms: _62  and  _64
REMARK   28  A    between atoms: _64  and  _65
REMARK   29  A    between atoms: _64  and  _67
REMARK   30  A    between atoms: _67  and  _68
REMARK   31  A    between atoms: _78  and  _80
REMARK   32  A    between atoms: _80  and  _81
REMARK   33  A    between atoms: _80  and  _83
REMARK   34  A    between atoms: _83  and  _84
REMARK   35  A    between atoms: _89  and  _90
REMARK   36  A    between atoms: _92  and  _94
REMARK   37  A    between atoms: _94  and  _95
REMARK   38  A    between atoms: _94  and  _97
REMARK   39  A    between atoms: _97  and  _98
REMARK   40  A    between atoms: _100  and  _102
REMARK   41  A    between atoms: _102  and  _103
REMARK   42  A    between atoms: _102  and  _105
REMARK   43  A    between atoms: _105  and  _106
REMARK   44  A    between atoms: _109  and  _111
REMARK   45  A    between atoms: _111  and  _112
REMARK   46  A    between atoms: _111  and  _114
REMARK   47  A    between atoms: _114  and  _115
REMARK   48  A    between atoms: _118  and  _120
REMARK   49  A    between atoms: _120  and  _121
REMARK   50  A    between atoms: _120  and  _123
REMARK   51  A    between atoms: _126  and  _128
REMARK   52  A    between atoms: _128  and  _129
REMARK   53  A    between atoms: _128  and  _131
REMARK   54  A    between atoms: _131  and  _132
REMARK   55  A    between atoms: _135  and  _137
REMARK   56  A    between atoms: _137  and  _138
REMARK   57  A    between atoms: _137  and  _140
REMARK   58  A    between atoms: _140  and  _141
REMARK   59  A    between atoms: _141  and  _142
REMARK   60  A    between atoms: _142  and  _143
REMARK   61  A    between atoms: _152  and  _154
REMARK   62  A    between atoms: _154  and  _155
REMARK   63  A    between atoms: _154  and  _157
REMARK   64  A    between atoms: _157  and  _158
REMARK   65  A    between atoms: _158  and  _159
REMARK   66  A    between atoms: _159  and  _160
REMARK   67  A    between atoms: _169  and  _171
REMARK   68  A    between atoms: _171  and  _172
REMARK   69  A    between atoms: _171  and  _174
REMARK   70  A    between atoms: _174  and  _175
REMARK   71  A    between atoms: _180  and  _182
REMARK   72  A    between atoms: _182  and  _183
REMARK   73  A    between atoms: _182  and  _185
REMARK   74  A    between atoms: _185  and  _186
REMARK   75  A    between atoms: _191  and  _193
REMARK   76  A    between atoms: _193  and  _194
REMARK   77  A    between atoms: _193  and  _196
REMARK   78  A    between atoms: _196  and  _197
REMARK   79  A    between atoms: _200  and  _202
REMARK   80  A    between atoms: _202  and  _203
REMARK   81  A    between atoms: _202  and  _205
REMARK   82  A    between atoms: _208  and  _210
REMARK   83  A    between atoms: _210  and  _211
REMARK   84  A    between atoms: _210  and  _213
REMARK   85  A    between atoms: _213  and  _214
REMARK   86  A    between atoms: _217  and  _219
REMARK   87  A    between atoms: _219  and  _220
REMARK   88  A    between atoms: _219  and  _222
REMARK   89  A    between atoms: _222  and  _223
REMARK   90  A    between atoms: _229  and  _231
REMARK   91  A    between atoms: _231  and  _232
REMARK   92  A    between atoms: _231  and  _234
REMARK   93  A    between atoms: _234  and  _235
REMARK   94  A    between atoms: _240  and  _241
REMARK   95  A    between atoms: _243  and  _245
REMARK   96  A    between atoms: _245  and  _246
REMARK   97  A    between atoms: _245  and  _248
REMARK   98  A    between atoms: _248  and  _249
REMARK   99  A    between atoms: _249  and  _250
REMARK  100  A    between atoms: _252  and  _254
REMARK  101  A    between atoms: _254  and  _255
REMARK  102  A    between atoms: _254  and  _257
REMARK  103  A    between atoms: _257  and  _258
REMARK  104  A    between atoms: _260  and  _262
REMARK  105  A    between atoms: _262  and  _263
REMARK  106  A    between atoms: _262  and  _265
REMARK  107  A    between atoms: _265  and  _266
REMARK  108  A    between atoms: _266  and  _267
REMARK  109  A    between atoms: _267  and  _268
REMARK  110  A    between atoms: _277  and  _279
REMARK  111  A    between atoms: _279  and  _280
REMARK  112  A    between atoms: _279  and  _282
REMARK  113  A    between atoms: _282  and  _283
REMARK  114  A    between atoms: _286  and  _288
REMARK  115  A    between atoms: _288  and  _289
REMARK  116  A    between atoms: _288  and  _291
REMARK  117  A    between atoms: _291  and  _292
REMARK  118  A    between atoms: _294  and  _296
REMARK  119  A    between atoms: _296  and  _297
REMARK  120  A    between atoms: _296  and  _299
REMARK  121  A    between atoms: _299  and  _300
REMARK  122  A    between atoms: _303  and  _305
REMARK  123  A    between atoms: _305  and  _306
REMARK  124  A    between atoms: _305  and  _308
REMARK  125  A    between atoms: _308  and  _309
REMARK  126  A    between atoms: _309  and  _310
REMARK  127  A    between atoms: _310  and  _311
REMARK  128  A    between atoms: _320  and  _322
REMARK  129  A    between atoms: _322  and  _323
REMARK  130  A    between atoms: _322  and  _325
REMARK  131  A    between atoms: _325  and  _326
REMARK  132  A    between atoms: _326  and  _327
REMARK  133  A    between atoms: _329  and  _331
REMARK  134  A    between atoms: _331  and  _332
REMARK  135  A    between atoms: _331  and  _334
REMARK  136  A    between atoms: _334  and  _335
REMARK  137  A    between atoms: _338  and  _340
REMARK  138  A    between atoms: _340  and  _341
REMARK  139  A    between atoms: _340  and  _343
REMARK  140  A    between atoms: _343  and  _344
REMARK                            x       y       z     vdW  Elec       q    Type
REMARK                         _______ _______ _______ _____ _____    ______ ____
ROOT
ATOM      1  CA  LEU A   1       0.557  50.421  -6.354  0.00  0.00    +0.133 C 
ENDROOT
BRANCH   1   2
ATOM      2  N   LEU A   1       0.633  50.556  -7.808  0.00  0.00    -0.239 NA
ATOM      3  H   LEU A   1       1.223  49.889  -8.346  0.00  0.00    +0.142 HD
ENDBRANCH   1   2
BRANCH   1   4
ATOM      4  C   LEU A   1       1.366  51.515  -5.641  0.00  0.00    +0.224 C 
ATOM      5  O   LEU A   1       0.950  52.022  -4.593  0.00  0.00    -0.287 OA
ENDBRANCH   1   4
BRANCH   1   6
ATOM      6  CB  LEU A   1       0.987  49.012  -5.927  0.00  0.00    +0.025 C 
BRANCH   6   7
ATOM      7  CG  LEU A   1       0.058  47.907  -6.439  0.00  0.00    +0.002 C 
ATOM      8  CD2 LEU A   1      -1.192  47.738  -5.572  0.00  0.00    +0.000 C 
ATOM      9  CD1 LEU A   1       0.798  46.587  -6.613  0.00  0.00    +0.000 C 
ENDBRANCH   6   7
ENDBRANCH   1   6
TORSDOF 4
REMARK  Name = ../refined-set-2016/2q8h/2q8h_pocket.pdb
REMARK  140 active torsions:
REMARK  status: ('A' for Active; 'I' for Inactive)
REMARK    1  A    between atoms: _1  and  _3
REMARK    2  A    between atoms: _3  and  _4
REMARK    3  A    between atoms: _3  and  _6
REMARK    4  A    between atoms: _6  and  _7
REMARK    5  A    between atoms: _10  and  _12
REMARK    6  A    between atoms: _12  and  _13
REMARK    7  A    between atoms: _12  and  _15
REMARK    8  A    between atoms: _15  and  _16
REMARK    9  A    between atoms: _16  and  _17
REMARK   10  A    between atoms: _17  and  _18
REMARK   11  A    between atoms: _27  and  _29
REMARK   12  A    between atoms: _29  and  _30
REMARK   13  A    between atoms: _29  and  _32
REMARK   14  A    between atoms: _32  and  _33
REMARK   15  A    between atoms: _36  and  _38
REMARK   16  A    between atoms: _38  and  _39
REMARK   17  A    between atoms: _38  and  _41
REMARK   18  A    between atoms: _41  and  _42
REMARK   19  A    between atoms: _45  and  _47
REMARK   20  A    between atoms: _47  and  _48
REMARK   21  A    between atoms: _47  and  _50
REMARK   22  A    between atoms: _50  and  _51
REMARK   23  A    between atoms: _51  and  _52
REMARK   24  A    between atoms: _54  and  _56
REMARK   25  A    between atoms: _56  and  _57
REMARK   26  A    between atoms: _56  and  _59
REMARK   27  A    between atoms: _62  and  _64
REMARK   28  A    between atoms: _64  and  _65
REMARK   29  A    between atoms: _64  and  _67
REMARK   30  A    between atoms: _67  and  _68
REMARK   31  A    between atoms: _78  and  _80
REMARK   32  A    between atoms: _80  and  _81
REMARK   33  A    between atoms: _80  and  _83
REMARK   34  A    between atoms: _83  and  _84
REMARK   35  A    between atoms: _89  and  _90
REMARK   36  A    between atoms: _92  and  _94
REMARK   37  A    between atoms: _94  and  _95
REMARK   38  A    between atoms: _94  and  _97
REMARK   39  A    between atoms: _97  and  _98
REMARK   40  A    between atoms: _100  and  _102
REMARK   41  A    between atoms: _102  and  _103
REMARK   42  A    between atoms: _102  and  _105
REMARK   43  A    between atoms: _105  and  _106
REMARK   44  A    between atoms: _109  and  _111
REMARK   45  A    between atoms: _111  and  _112
REMARK   46  A    between atoms: _111  and  _114
REMARK   47  A    between atoms: _114  and  _115
REMARK   48  A    between atoms: _118  and  _120
REMARK   49  A    between atoms: _120  and  _121
REMARK   50  A    between atoms: _120  and  _123
REMARK   51  A    between atoms: _126  and  _128
REMARK   52  A    between atoms: _128  and  _129
REMARK   53  A    between atoms: _128  and  _131
REMARK   54  A    between atoms: _131  and  _132
REMARK   55  A    between atoms: _135  and  _137
REMARK   56  A    between atoms: _137  and  _138
REMARK   57  A    between atoms: _137  and  _140
REMARK   58  A    between atoms: _140  and  _141
REMARK   59  A    between atoms: _141  and  _142
REMARK   60  A    between atoms: _142  and  _143
REMARK   61  A    between atoms: _152  and  _154
REMARK   62  A    between atoms: _154  and  _155
REMARK   63  A    between atoms: _154  and  _157
REMARK   64  A    between atoms: _157  and  _158
REMARK   65  A    between atoms: _158  and  _159
REMARK   66  A    between atoms: _159  and  _160
REMARK   67  A    between atoms: _169  and  _171
REMARK   68  A    between atoms: _171  and  _172
REMARK   69  A    between atoms: _171  and  _174
REMARK   70  A    between atoms: _174  and  _175
REMARK   71  A    between atoms: _180  and  _182
REMARK   72  A    between atoms: _182  and  _183
REMARK   73  A    between atoms: _182  and  _185
REMARK   74  A    between atoms: _185  and  _186
REMARK   75  A    between atoms: _191  and  _193
REMARK   76  A    between atoms: _193  and  _194
REMARK   77  A    between atoms: _193  and  _196
REMARK   78  A    between atoms: _196  and  _197
REMARK   79  A    between atoms: _200  and  _202
REMARK   80  A    between atoms: _202  and  _203
REMARK   81  A    between atoms: _202  and  _205
REMARK   82  A    between atoms: _208  and  _210
REMARK   83  A    between atoms: _210  and  _211
REMARK   84  A    between atoms: _210  and  _213
REMARK   85  A    between atoms: _213  and  _214
REMARK   86  A    between atoms: _217  and  _219
REMARK   87  A    between atoms: _219  and  _220
REMARK   88  A    between atoms: _219  and  _222
REMARK   89  A    between atoms: _222  and  _223
REMARK   90  A    between atoms: _229  and  _231
REMARK   91  A    between atoms: _231  and  _232
REMARK   92  A    between atoms: _231  and  _234
REMARK   93  A    between atoms: _234  and  _235
REMARK   94  A    between atoms: _240  and  _241
REMARK   95  A    between atoms: _243  and  _245
REMARK   96  A    between atoms: _245  and  _246
REMARK   97  A    between atoms: _245  and  _248
REMARK   98  A    between atoms: _248  and  _249
REMARK   99  A    between atoms: _249  and  _250
REMARK  100  A    between atoms: _252  and  _254
REMARK  101  A    between atoms: _254  and  _255
REMARK  102  A    between atoms: _254  and  _257
REMARK  103  A    between atoms: _257  and  _258
REMARK  104  A    between atoms: _260  and  _262
REMARK  105  A    between atoms: _262  and  _263
REMARK  106  A    between atoms: _262  and  _265
REMARK  107  A    between atoms: _265  and  _266
REMARK  108  A    between atoms: _266  and  _267
REMARK  109  A    between atoms: _267  and  _268
REMARK  110  A    between atoms: _277  and  _279
REMARK  111  A    between atoms: _279  and  _280
REMARK  112  A    between atoms: _279  and  _282
REMARK  113  A    between atoms: _282  and  _283
REMARK  114  A    between atoms: _286  and  _288
REMARK  115  A    between atoms: _288  and  _289
REMARK  116  A    between atoms: _288  and  _291
REMARK  117  A    between atoms: _291  and  _292
REMARK  118  A    between atoms: _294  and  _296
REMARK  119  A    between atoms: _296  and  _297
REMARK  120  A    between atoms: _296  and  _299
REMARK  121  A    between atoms: _299  and  _300
REMARK  122  A    between atoms: _303  and  _305
REMARK  123  A    between atoms: _305  and  _306
REMARK  124  A    between atoms: _305  and  _308
REMARK  125  A    between atoms: _308  and  _309
REMARK  126  A    between atoms: _309  and  _310
REMARK  127  A    between atoms: _310  and  _311
REMARK  128  A    between atoms: _320  and  _322
REMARK  129  A    between atoms: _322  and  _323
REMARK  130  A    between atoms: _322  and  _325
REMARK  131  A    between atoms: _325  and  _326
REMARK  132  A    between atoms: _326  and  _327
REMARK  133  A    between atoms: _329  and  _331
REMARK  134  A    between atoms: _331  and  _332
REMARK  135  A    between atoms: _331  and  _334
REMARK  136  A    between atoms: _334  and  _335
REMARK  137  A    between atoms: _338  and  _340
REMARK  138  A    between atoms: _340  and  _341
REMARK  139  A    between atoms: _340  and  _343
REMARK  140  A    between atoms: _343  and  _344
REMARK                            x       y       z     vdW  Elec       q    Type
REMARK                         _______ _______ _______ _____ _____    ______ ____
ROOT
ATOM      1  CA  VAL A   1      -5.947  45.650  -6.452  0.00  0.00    +0.133 C 
ENDROOT
BRANCH   1   2
ATOM      2  CB  VAL A   1      -6.158  45.414  -4.932  0.00  0.00    +0.023 C 
ATOM      3  CG2 VAL A   1      -5.066  46.085  -4.133  0.00  0.00    +0.002 C 
ATOM      4  CG1 VAL A   1      -6.231  43.930  -4.608  0.00  0.00    +0.002 C 
ENDBRANCH   1   2
BRANCH   1   5
ATOM      5  N   VAL A   1      -6.230  47.049  -6.826  0.00  0.00    -0.239 NA
ATOM      6  H   VAL A   1      -6.659  47.676  -6.116  0.00  0.00    +0.142 HD
ENDBRANCH   1   5
BRANCH   1   7
ATOM      7  C   VAL A   1      -6.830  44.704  -7.260  0.00  0.00    +0.224 C 
ATOM      8  O   VAL A   1      -6.331  43.759  -7.877  0.00  0.00    -0.287 OA
ENDBRANCH   1   7
TORSDOF 3
REMARK  Name = ../refined-set-2016/2q8h/2q8h_pocket.pdb
REMARK  140 active torsions:
REMARK  status: ('A' for Active; 'I' for Inactive)
REMARK    1  A    between atoms: _1  and  _3
REMARK    2  A    between atoms: _3  and  _4
REMARK    3  A    between atoms: _3  and  _6
REMARK    4  A    between atoms: _6  and  _7
REMARK    5  A    between atoms: _10  and  _12
REMARK    6  A    between atoms: _12  and  _13
REMARK    7  A    between atoms: _12  and  _15
REMARK    8  A    between atoms: _15  and  _16
REMARK    9  A    between atoms: _16  and  _17
REMARK   10  A    between atoms: _17  and  _18
REMARK   11  A    between atoms: _27  and  _29
REMARK   12  A    between atoms: _29  and  _30
REMARK   13  A    between atoms: _29  and  _32
REMARK   14  A    between atoms: _32  and  _33
REMARK   15  A    between atoms: _36  and  _38
REMARK   16  A    between atoms: _38  and  _39
REMARK   17  A    between atoms: _38  and  _41
REMARK   18  A    between atoms: _41  and  _42
REMARK   19  A    between atoms: _45  and  _47
REMARK   20  A    between atoms: _47  and  _48
REMARK   21  A    between atoms: _47  and  _50
REMARK   22  A    between atoms: _50  and  _51
REMARK   23  A    between atoms: _51  and  _52
REMARK   24  A    between atoms: _54  and  _56
REMARK   25  A    between atoms: _56  and  _57
REMARK   26  A    between atoms: _56  and  _59
REMARK   27  A    between atoms: _62  and  _64
REMARK   28  A    between atoms: _64  and  _65
REMARK   29  A    between atoms: _64  and  _67
REMARK   30  A    between atoms: _67  and  _68
REMARK   31  A    between atoms: _78  and  _80
REMARK   32  A    between atoms: _80  and  _81
REMARK   33  A    between atoms: _80  and  _83
REMARK   34  A    between atoms: _83  and  _84
REMARK   35  A    between atoms: _89  and  _90
REMARK   36  A    between atoms: _92  and  _94
REMARK   37  A    between atoms: _94  and  _95
REMARK   38  A    between atoms: _94  and  _97
REMARK   39  A    between atoms: _97  and  _98
REMARK   40  A    between atoms: _100  and  _102
REMARK   41  A    between atoms: _102  and  _103
REMARK   42  A    between atoms: _102  and  _105
REMARK   43  A    between atoms: _105  and  _106
REMARK   44  A    between atoms: _109  and  _111
REMARK   45  A    between atoms: _111  and  _112
REMARK   46  A    between atoms: _111  and  _114
REMARK   47  A    between atoms: _114  and  _115
REMARK   48  A    between atoms: _118  and  _120
REMARK   49  A    between atoms: _120  and  _121
REMARK   50  A    between atoms: _120  and  _123
REMARK   51  A    between atoms: _126  and  _128
REMARK   52  A    between atoms: _128  and  _129
REMARK   53  A    between atoms: _128  and  _131
REMARK   54  A    between atoms: _131  and  _132
REMARK   55  A    between atoms: _135  and  _137
REMARK   56  A    between atoms: _137  and  _138
REMARK   57  A    between atoms: _137  and  _140
REMARK   58  A    between atoms: _140  and  _141
REMARK   59  A    between atoms: _141  and  _142
REMARK   60  A    between atoms: _142  and  _143
REMARK   61  A    between atoms: _152  and  _154
REMARK   62  A    between atoms: _154  and  _155
REMARK   63  A    between atoms: _154  and  _157
REMARK   64  A    between atoms: _157  and  _158
REMARK   65  A    between atoms: _158  and  _159
REMARK   66  A    between atoms: _159  and  _160
REMARK   67  A    between atoms: _169  and  _171
REMARK   68  A    between atoms: _171  and  _172
REMARK   69  A    between atoms: _171  and  _174
REMARK   70  A    between atoms: _174  and  _175
REMARK   71  A    between atoms: _180  and  _182
REMARK   72  A    between atoms: _182  and  _183
REMARK   73  A    between atoms: _182  and  _185
REMARK   74  A    between atoms: _185  and  _186
REMARK   75  A    between atoms: _191  and  _193
REMARK   76  A    between atoms: _193  and  _194
REMARK   77  A    between atoms: _193  and  _196
REMARK   78  A    between atoms: _196  and  _197
REMARK   79  A    between atoms: _200  and  _202
REMARK   80  A    between atoms: _202  and  _203
REMARK   81  A    between atoms: _202  and  _205
REMARK   82  A    between atoms: _208  and  _210
REMARK   83  A    between atoms: _210  and  _211
REMARK   84  A    between atoms: _210  and  _213
REMARK   85  A    between atoms: _213  and  _214
REMARK   86  A    between atoms: _217  and  _219
REMARK   87  A    between atoms: _219  and  _220
REMARK   88  A    between atoms: _219  and  _222
REMARK   89  A    between atoms: _222  and  _223
REMARK   90  A    between atoms: _229  and  _231
REMARK   91  A    between atoms: _231  and  _232
REMARK   92  A    between atoms: _231  and  _234
REMARK   93  A    between atoms: _234  and  _235
REMARK   94  A    between atoms: _240  and  _241
REMARK   95  A    between atoms: _243  and  _245
REMARK   96  A    between atoms: _245  and  _246
REMARK   97  A    between atoms: _245  and  _248
REMARK   98  A    between atoms: _248  and  _249
REMARK   99  A    between atoms: _249  and  _250
REMARK  100  A    between atoms: _252  and  _254
REMARK  101  A    between atoms: _254  and  _255
REMARK  102  A    between atoms: _254  and  _257
REMARK  103  A    between atoms: _257  and  _258
REMARK  104  A    between atoms: _260  and  _262
REMARK  105  A    between atoms: _262  and  _263
REMARK  106  A    between atoms: _262  and  _265
REMARK  107  A    between atoms: _265  and  _266
REMARK  108  A    between atoms: _266  and  _267
REMARK  109  A    between atoms: _267  and  _268
REMARK  110  A    between atoms: _277  and  _279
REMARK  111  A    between atoms: _279  and  _280
REMARK  112  A    between atoms: _279  and  _282
REMARK  113  A    between atoms: _282  and  _283
REMARK  114  A    between atoms: _286  and  _288
REMARK  115  A    between atoms: _288  and  _289
REMARK  116  A    between atoms: _288  and  _291
REMARK  117  A    between atoms: _291  and  _292
REMARK  118  A    between atoms: _294  and  _296
REMARK  119  A    between atoms: _296  and  _297
REMARK  120  A    between atoms: _296  and  _299
REMARK  121  A    between atoms: _299  and  _300
REMARK  122  A    between atoms: _303  and  _305
REMARK  123  A    between atoms: _305  and  _306
REMARK  124  A    between atoms: _305  and  _308
REMARK  125  A    between atoms: _308  and  _309
REMARK  126  A    between atoms: _309  and  _310
REMARK  127  A    between atoms: _310  and  _311
REMARK  128  A    between atoms: _320  and  _322
REMARK  129  A    between atoms: _322  and  _323
REMARK  130  A    between atoms: _322  and  _325
REMARK  131  A    between atoms: _325  and  _326
REMARK  132  A    between atoms: _326  and  _327
REMARK  133  A    between atoms: _329  and  _331
REMARK  134  A    between atoms: _331  and  _332
REMARK  135  A    between atoms: _331  and  _334
REMARK  136  A    between atoms: _334  and  _335
REMARK  137  A    between atoms: _338  and  _340
REMARK  138  A    between atoms: _340  and  _341
REMARK  139  A    between atoms: _340  and  _343
REMARK  140  A    between atoms: _343  and  _344
REMARK                            x       y       z     vdW  Elec       q    Type
REMARK                         _______ _______ _______ _____ _____    ______ ____
ROOT
ATOM      1  CA  ARG A   2      -5.952  40.689  -9.966  0.00  0.00    +0.137 C 
ENDROOT
BRANCH   1   3
ATOM      2  C   ILE A   1      -4.709  42.493 -11.074  0.00  0.00    +0.238 C 
ATOM      3  N   ARG A   2      -5.561  42.099 -10.125  0.00  0.00    -0.298 N 
ATOM      4  H   ARG A   2      -5.960  42.809  -9.479  0.00  0.00    +0.150 HD
ATOM      5  O   ILE A   1      -4.169  41.704 -11.862  0.00  0.00    -0.274 OA
BRANCH   2   6
ATOM      6  CA  ILE A   1      -4.391  44.003 -11.137  0.00  0.00    +0.145 C 
BRANCH   6   7
ATOM      7  N   ILE A   1      -5.567  44.881 -10.976  0.00  0.00    -0.238 NA
ATOM      8  H   ILE A   1      -5.529  45.602 -10.227  0.00  0.00    +0.142 HD
ENDBRANCH   6   7
BRANCH   6   9
ATOM      9  CB  ILE A   1      -3.259  44.371 -10.096  0.00  0.00    +0.025 C 
ATOM     10  CG2 ILE A   1      -2.280  43.221  -9.884  0.00  0.00    +0.002 C 
BRANCH   9  11
ATOM     11  CG1 ILE A   1      -2.509  45.640 -10.521  0.00  0.00    +0.002 C 
ATOM     12  CD1 ILE A   1      -1.829  46.388  -9.364  0.00  0.00    +0.000 C 
ENDBRANCH   9  11
ENDBRANCH   6   9
ENDBRANCH   2   6
ENDBRANCH   1   3
BRANCH   1  13
ATOM     13  C   ARG A   2      -6.691  40.160 -11.201  0.00  0.00    +0.227 C 
ATOM     14  O   ARG A   2      -6.296  39.142 -11.779  0.00  0.00    -0.286 OA
ENDBRANCH   1  13
BRANCH   1  15
ATOM     15  CB  ARG A   2      -6.819  40.485  -8.713  0.00  0.00    +0.031 C 
BRANCH  15  16
ATOM     16  CG  ARG A   2      -7.356  39.057  -8.566  0.00  0.00    +0.045 C 
BRANCH  16  17
ATOM     17  CD  ARG A   2      -8.400  38.929  -7.465  0.00  0.00    +0.174 C 
BRANCH  17  18
ATOM     18  NE  ARG A   2      -9.776  38.978  -7.950  0.00  0.00    -0.265 N 
ATOM     19  CZ  ARG A   2     -10.648  37.976  -7.862  0.00  0.00    +0.342 C 
ATOM     20  NH2 ARG A   2     -10.313  36.818  -7.304  0.00  0.00    -0.292 N 
ATOM     21 HH21 ARG A   2      -9.354  36.681  -6.926  0.00  0.00    +0.255 HD
ATOM     22 HH22 ARG A   2     -11.010  36.048  -7.245  0.00  0.00    +0.255 HD
ATOM     23  NH1 ARG A   2     -11.874  38.138  -8.331  0.00  0.00    -0.292 N 
ATOM     24 HH11 ARG A   2     -12.562  37.361  -8.267  0.00  0.00    +0.255 HD
ATOM     25 HH12 ARG A   2     -12.150  39.042  -8.764  0.00  0.00    +0.255 HD
ATOM     26  HE  ARG A   2     -10.099  39.860  -8.397  0.00  0.00    +0.259 HD
ENDBRANCH  17  18
ENDBRANCH  16  17
ENDBRANCH  15  16
ENDBRANCH   1  15
TORSDOF 10
REMARK  Name = ../refined-set-2016/2q8h/2q8h_pocket.pdb
REMARK  140 active torsions:
REMARK  status: ('A' for Active; 'I' for Inactive)
REMARK    1  A    between atoms: _1  and  _3
REMARK    2  A    between atoms: _3  and  _4
REMARK    3  A    between atoms: _3  and  _6
REMARK    4  A    between atoms: _6  and  _7
REMARK    5  A    between atoms: _10  and  _12
REMARK    6  A    between atoms: _12  and  _13
REMARK    7  A    between atoms: _12  and  _15
REMARK    8  A    between atoms: _15  and  _16
REMARK    9  A    between atoms: _16  and  _17
REMARK   10  A    between atoms: _17  and  _18
REMARK   11  A    between atoms: _27  and  _29
REMARK   12  A    between atoms: _29  and  _30
REMARK   13  A    between atoms: _29  and  _32
REMARK   14  A    between atoms: _32  and  _33
REMARK   15  A    between atoms: _36  and  _38
REMARK   16  A    between atoms: _38  and  _39
REMARK   17  A    between atoms: _38  and  _41
REMARK   18  A    between atoms: _41  and  _42
REMARK   19  A    between atoms: _45  and  _47
REMARK   20  A    between atoms: _47  and  _48
REMARK   21  A    between atoms: _47  and  _50
REMARK   22  A    between atoms: _50  and  _51
REMARK   23  A    between atoms: _51  and  _52
REMARK   24  A    between atoms: _54  and  _56
REMARK   25  A    between atoms: _56  and  _57
REMARK   26  A    between atoms: _56  and  _59
REMARK   27  A    between atoms: _62  and  _64
REMARK   28  A    between atoms: _64  and  _65
REMARK   29  A    between atoms: _64  and  _67
REMARK   30  A    between atoms: _67  and  _68
REMARK   31  A    between atoms: _78  and  _80
REMARK   32  A    between atoms: _80  and  _81
REMARK   33  A    between atoms: _80  and  _83
REMARK   34  A    between atoms: _83  and  _84
REMARK   35  A    between atoms: _89  and  _90
REMARK   36  A    between atoms: _92  and  _94
REMARK   37  A    between atoms: _94  and  _95
REMARK   38  A    between atoms: _94  and  _97
REMARK   39  A    between atoms: _97  and  _98
REMARK   40  A    between atoms: _100  and  _102
REMARK   41  A    between atoms: _102  and  _103
REMARK   42  A    between atoms: _102  and  _105
REMARK   43  A    between atoms: _105  and  _106
REMARK   44  A    between atoms: _109  and  _111
REMARK   45  A    between atoms: _111  and  _112
REMARK   46  A    between atoms: _111  and  _114
REMARK   47  A    between atoms: _114  and  _115
REMARK   48  A    between atoms: _118  and  _120
REMARK   49  A    between atoms: _120  and  _121
REMARK   50  A    between atoms: _120  and  _123
REMARK   51  A    between atoms: _126  and  _128
REMARK   52  A    between atoms: _128  and  _129
REMARK   53  A    between atoms: _128  and  _131
REMARK   54  A    between atoms: _131  and  _132
REMARK   55  A    between atoms: _135  and  _137
REMARK   56  A    between atoms: _137  and  _138
REMARK   57  A    between atoms: _137  and  _140
REMARK   58  A    between atoms: _140  and  _141
REMARK   59  A    between atoms: _141  and  _142
REMARK   60  A    between atoms: _142  and  _143
REMARK   61  A    between atoms: _152  and  _154
REMARK   62  A    between atoms: _154  and  _155
REMARK   63  A    between atoms: _154  and  _157
REMARK   64  A    between atoms: _157  and  _158
REMARK   65  A    between atoms: _158  and  _159
REMARK   66  A    between atoms: _159  and  _160
REMARK   67  A    between atoms: _169  and  _171
REMARK   68  A    between atoms: _171  and  _172
REMARK   69  A    between atoms: _171  and  _174
REMARK   70  A    between atoms: _174  and  _175
REMARK   71  A    between atoms: _180  and  _182
REMARK   72  A    between atoms: _182  and  _183
REMARK   73  A    between atoms: _182  and  _185
REMARK   74  A    between atoms: _185  and  _186
REMARK   75  A    between atoms: _191  and  _193
REMARK   76  A    between atoms: _193  and  _194
REMARK   77  A    between atoms: _193  and  _196
REMARK   78  A    between atoms: _196  and  _197
REMARK   79  A    between atoms: _200  and  _202
REMARK   80  A    between atoms: _202  and  _203
REMARK   81  A    between atoms: _202  and  _205
REMARK   82  A    between atoms: _208  and  _210
REMARK   83  A    between atoms: _210  and  _211
REMARK   84  A    between atoms: _210  and  _213
REMARK   85  A    between atoms: _213  and  _214
REMARK   86  A    between atoms: _217  and  _219
REMARK   87  A    between atoms: _219  and  _220
REMARK   88  A    between atoms: _219  and  _222
REMARK   89  A    between atoms: _222  and  _223
REMARK   90  A    between atoms: _229  and  _231
REMARK   91  A    between atoms: _231  and  _232
REMARK   92  A    between atoms: _231  and  _234
REMARK   93  A    between atoms: _234  and  _235
REMARK   94  A    between atoms: _240  and  _241
REMARK   95  A    between atoms: _243  and  _245
REMARK   96  A    between atoms: _245  and  _246
REMARK   97  A    between atoms: _245  and  _248
REMARK   98  A    between atoms: _248  and  _249
REMARK   99  A    between atoms: _249  and  _250
REMARK  100  A    between atoms: _252  and  _254
REMARK  101  A    between atoms: _254  and  _255
REMARK  102  A    between atoms: _254  and  _257
REMARK  103  A    between atoms: _257  and  _258
REMARK  104  A    between atoms: _260  and  _262
REMARK  105  A    between atoms: _262  and  _263
REMARK  106  A    between atoms: _262  and  _265
REMARK  107  A    between atoms: _265  and  _266
REMARK  108  A    between atoms: _266  and  _267
REMARK  109  A    between atoms: _267  and  _268
REMARK  110  A    between atoms: _277  and  _279
REMARK  111  A    between atoms: _279  and  _280
REMARK  112  A    between atoms: _279  and  _282
REMARK  113  A    between atoms: _282  and  _283
REMARK  114  A    between atoms: _286  and  _288
REMARK  115  A    between atoms: _288  and  _289
REMARK  116  A    between atoms: _288  and  _291
REMARK  117  A    between atoms: _291  and  _292
REMARK  118  A    between atoms: _294  and  _296
REMARK  119  A    between atoms: _296  and  _297
REMARK  120  A    between atoms: _296  and  _299
REMARK  121  A    between atoms: _299  and  _300
REMARK  122  A    between atoms: _303  and  _305
REMARK  123  A    between atoms: _305  and  _306
REMARK  124  A    between atoms: _305  and  _308
REMARK  125  A    between atoms: _308  and  _309
REMARK  126  A    between atoms: _309  and  _310
REMARK  127  A    between atoms: _310  and  _311
REMARK  128  A    between atoms: _320  and  _322
REMARK  129  A    between atoms: _322  and  _323
REMARK  130  A    between atoms: _322  and  _325
REMARK  131  A    between atoms: _325  and  _326
REMARK  132  A    between atoms: _326  and  _327
REMARK  133  A    between atoms: _329  and  _331
REMARK  134  A    between atoms: _331  and  _332
REMARK  135  A    between atoms: _331  and  _334
REMARK  136  A    between atoms: _334  and  _335
REMARK  137  A    between atoms: _338  and  _340
REMARK  138  A    between atoms: _340  and  _341
REMARK  139  A    between atoms: _340  and  _343
REMARK  140  A    between atoms: _343  and  _344
REMARK                            x       y       z     vdW  Elec       q    Type
REMARK                         _______ _______ _______ _____ _____    ______ ____
ROOT
ATOM      1  CA  ASN A   3      -4.374  35.303 -14.916  0.00  0.00    +0.158 C 
ENDROOT
BRANCH   1   2
ATOM      2  C   ASN A   3      -3.460  34.374 -15.719  0.00  0.00    +0.241 C 
ATOM      3  O   ASN A   3      -3.523  33.152 -15.555  0.00  0.00    -0.273 OA
ATOM      4  N   ASP A   4      -2.652  34.960 -16.602  0.00  0.00    -0.297 N 
ATOM      5  H   ASP A   4      -2.467  35.979 -16.506  0.00  0.00    +0.150 HD
BRANCH   4   6
ATOM      6  CA  ASP A   4      -2.015  34.236 -17.697  0.00  0.00    +0.160 C 
BRANCH   6   7
ATOM      7  C   ASP A   4      -0.521  34.109 -17.523  0.00  0.00    +0.241 C 
ATOM      8  N   VAL A   5      -0.008  34.645 -16.419  0.00  0.00    -0.297 N 
ATOM      9  H   VAL A   5      -0.659  34.999 -15.689  0.00  0.00    +0.150 HD
ATOM     10  O   ASP A   4       0.146  33.539 -18.381  0.00  0.00    -0.273 OA
BRANCH   8  11
ATOM     11  CA  VAL A   5       1.423  34.758 -16.189  0.00  0.00    +0.149 C 
BRANCH  11  12
ATOM     12  C   VAL A   5       2.141  33.409 -16.210  0.00  0.00    +0.241 C 
ATOM     13  N   ILE A   6       1.526  32.397 -15.590  0.00  0.00    -0.298 N 
ATOM     14  H   ILE A   6       0.588  32.558 -15.171  0.00  0.00    +0.150 HD
ATOM     15  O   VAL A   5       3.241  33.304 -16.756  0.00  0.00    -0.273 OA
BRANCH  13  16
ATOM     16  CA  ILE A   6       2.133  31.068 -15.482  0.00  0.00    +0.137 C 
BRANCH  16  17
ATOM     17  C   ILE A   6       2.388  30.374 -16.819  0.00  0.00    +0.227 C 
ATOM     18  O   ILE A   6       3.510  29.933 -17.037  0.00  0.00    -0.286 OA
ENDBRANCH  16  17
BRANCH  16  19
ATOM     19  CB  ILE A   6       1.381  30.113 -14.487  0.00  0.00    +0.026 C 
ATOM     20  CG2 ILE A   6       1.782  28.645 -14.732  0.00  0.00    +0.002 C 
BRANCH  19  21
ATOM     21  CG1 ILE A   6       1.647  30.558 -13.045  0.00  0.00    +0.002 C 
ATOM     22  CD1 ILE A   6       0.887  29.755 -11.982  0.00  0.00    +0.000 C 
ENDBRANCH  19  21
ENDBRANCH  16  19
ENDBRANCH  13  16
ENDBRANCH  11  12
BRANCH  11  23
ATOM     23  CB  VAL A   5       1.725  35.467 -14.844  0.00  0.00    +0.027 C 
ATOM     24  CG2 VAL A   5       3.192  35.304 -14.463  0.00  0.00    +0.002 C 
ATOM     25  CG1 VAL A   5       1.374  36.933 -14.934  0.00  0.00    +0.002 C 
ENDBRANCH  11  23
ENDBRANCH   8  11
ENDBRANCH   6   7
BRANCH   6  26
ATOM     26  CB  ASP A   4      -2.302  34.929 -19.047  0.00  0.00    +0.143 C 
BRANCH  26  27
ATOM     27  CG  ASP A   4      -3.616  34.505 -19.659  0.00  0.00    +0.367 C 
ATOM     28  OD2 ASP A   4      -4.467  33.957 -18.919  0.00  0.00    -0.246 OA
ATOM     29  OD1 ASP A   4      -3.817  34.721 -20.885  0.00  0.00    -0.246 OA
ENDBRANCH  26  27
ENDBRANCH   6  26
ENDBRANCH   4   6
ENDBRANCH   1   2
BRANCH   1  32
ATOM     30  C   HIS A   2      -3.074  37.399 -15.008  0.00  0.00    +0.241 C 
ATOM     31  O   HIS A   2      -2.030  36.923 -14.507  0.00  0.00    -0.273 OA
ATOM     32  N   ASN A   3      -4.194  36.715 -15.223  0.00  0.00    -0.297 N 
ATOM     33  H   ASN A   3      -4.999  37.225 -15.640  0.00  0.00    +0.150 HD
BRANCH  30  34
ATOM     34  CA  HIS A   2      -3.138  38.839 -15.490  0.00  0.00    +0.155 C 
BRANCH  34  36
ATOM     35  C   ARG A   1      -5.122  40.146 -15.966  0.00  0.00    +0.238 C 
ATOM     36  N   HIS A   2      -4.289  39.652 -15.063  0.00  0.00    -0.297 N 
ATOM     37  H   HIS A   2      -4.448  39.838 -14.052  0.00  0.00    +0.150 HD
ATOM     38  O   ARG A   1      -5.105  39.782 -17.135  0.00  0.00    -0.274 OA
BRANCH  35  39
ATOM     39  CA  ARG A   1      -6.159  41.170 -15.508  0.00  0.00    +0.145 C 
BRANCH  39  40
ATOM     40  N   ARG A   1      -6.750  40.922 -14.191  0.00  0.00    -0.238 NA
ATOM     41  H   ARG A   1      -6.163  40.986 -13.335  0.00  0.00    +0.142 HD
ENDBRANCH  39  40
BRANCH  39  42
ATOM     42  CB  ARG A   1      -5.662  42.622 -15.678  0.00  0.00    +0.030 C 
BRANCH  42  43
ATOM     43  CG  ARG A   1      -4.670  43.096 -14.641  0.00  0.00    +0.045 C 
BRANCH  43  44
ATOM     44  CD  ARG A   1      -3.809  44.245 -15.149  0.00  0.00    +0.174 C 
BRANCH  44  45
ATOM     45  NE  ARG A   1      -4.477  45.550 -15.180  0.00  0.00    -0.265 N 
ATOM     46  CZ  ARG A   1      -3.874  46.701 -14.878  0.00  0.00    +0.342 C 
ATOM     47  NH2 ARG A   1      -2.597  46.706 -14.499  0.00  0.00    -0.292 N 
ATOM     48 HH21 ARG A   1      -2.128  47.604 -14.264  0.00  0.00    +0.255 HD
ATOM     49 HH22 ARG A   1      -2.069  45.812 -14.438  0.00  0.00    +0.255 HD
ATOM     50  NH1 ARG A   1      -4.546  47.841 -14.932  0.00  0.00    -0.292 N 
ATOM     51 HH11 ARG A   1      -4.072  48.736 -14.696  0.00  0.00    +0.255 HD
ATOM     52 HH12 ARG A   1      -5.548  47.841 -15.211  0.00  0.00    +0.255 HD
ATOM     53  HE  ARG A   1      -5.480  45.580 -15.454  0.00  0.00    +0.259 HD
ENDBRANCH  44  45
ENDBRANCH  43  44
ENDBRANCH  42  43
ENDBRANCH  39  42
ENDBRANCH  35  39
ENDBRANCH  34  36
BRANCH  34  54
ATOM     54  CB  HIS A   2      -1.848  39.590 -15.223  0.00  0.00    +0.076 C 
BRANCH  54  55
ATOM     55  CG  HIS A   2      -1.672  40.749 -16.138  0.00  0.00    +0.082 A 
ATOM     56  CD2 HIS A   2      -1.360  42.046 -15.897  0.00  0.00    +0.115 A 
ATOM     57  NE2 HIS A   2      -1.348  42.688 -17.110  0.00  0.00    -0.221 NA
ATOM     58  CE1 HIS A   2      -1.656  41.820 -18.058  0.00  0.00    +0.199 A 
ATOM     59  ND1 HIS A   2      -1.848  40.638 -17.497  0.00  0.00    -0.227 NA
ENDBRANCH  54  55
ENDBRANCH  34  54
ENDBRANCH  30  34
ENDBRANCH   1  32
BRANCH   1  60
ATOM     60  CB  ASN A   3      -5.825  34.899 -15.224  0.00  0.00    +0.114 C 
BRANCH  60  61
ATOM     61  CG  ASN A   3      -6.851  35.880 -14.673  0.00  0.00    +0.222 C 
ATOM     62  OD1 ASN A   3      -6.771  36.308 -13.519  0.00  0.00    -0.275 OA
ATOM     63  ND2 ASN A   3      -7.846  36.223 -15.502  0.00  0.00    -0.329 N 
ATOM     64 HD21 ASN A   3      -8.590  36.874 -15.180  0.00  0.00    +0.145 HD
ATOM     65 HD22 ASN A   3      -7.874  35.838 -16.468  0.00  0.00    +0.145 HD
ENDBRANCH  60  61
ENDBRANCH   1  60
TORSDOF 25
REMARK  Name = ../refined-set-2016/2q8h/2q8h_pocket.pdb
REMARK  140 active torsions:
REMARK  status: ('A' for Active; 'I' for Inactive)
REMARK    1  A    between atoms: _1  and  _3
REMARK    2  A    between atoms: _3  and  _4
REMARK    3  A    between atoms: _3  and  _6
REMARK    4  A    between atoms: _6  and  _7
REMARK    5  A    between atoms: _10  and  _12
REMARK    6  A    between atoms: _12  and  _13
REMARK    7  A    between atoms: _12  and  _15
REMARK    8  A    between atoms: _15  and  _16
REMARK    9  A    between atoms: _16  and  _17
REMARK   10  A    between atoms: _17  and  _18
REMARK   11  A    between atoms: _27  and  _29
REMARK   12  A    between atoms: _29  and  _30
REMARK   13  A    between atoms: _29  and  _32
REMARK   14  A    between atoms: _32  and  _33
REMARK   15  A    between atoms: _36  and  _38
REMARK   16  A    between atoms: _38  and  _39
REMARK   17  A    between atoms: _38  and  _41
REMARK   18  A    between atoms: _41  and  _42
REMARK   19  A    between atoms: _45  and  _47
REMARK   20  A    between atoms: _47  and  _48
REMARK   21  A    between atoms: _47  and  _50
REMARK   22  A    between atoms: _50  and  _51
REMARK   23  A    between atoms: _51  and  _52
REMARK   24  A    between atoms: _54  and  _56
REMARK   25  A    between atoms: _56  and  _57
REMARK   26  A    between atoms: _56  and  _59
REMARK   27  A    between atoms: _62  and  _64
REMARK   28  A    between atoms: _64  and  _65
REMARK   29  A    between atoms: _64  and  _67
REMARK   30  A    between atoms: _67  and  _68
REMARK   31  A    between atoms: _78  and  _80
REMARK   32  A    between atoms: _80  and  _81
REMARK   33  A    between atoms: _80  and  _83
REMARK   34  A    between atoms: _83  and  _84
REMARK   35  A    between atoms: _89  and  _90
REMARK   36  A    between atoms: _92  and  _94
REMARK   37  A    between atoms: _94  and  _95
REMARK   38  A    between atoms: _94  and  _97
REMARK   39  A    between atoms: _97  and  _98
REMARK   40  A    between atoms: _100  and  _102
REMARK   41  A    between atoms: _102  and  _103
REMARK   42  A    between atoms: _102  and  _105
REMARK   43  A    between atoms: _105  and  _106
REMARK   44  A    between atoms: _109  and  _111
REMARK   45  A    between atoms: _111  and  _112
REMARK   46  A    between atoms: _111  and  _114
REMARK   47  A    between atoms: _114  and  _115
REMARK   48  A    between atoms: _118  and  _120
REMARK   49  A    between atoms: _120  and  _121
REMARK   50  A    between atoms: _120  and  _123
REMARK   51  A    between atoms: _126  and  _128
REMARK   52  A    between atoms: _128  and  _129
REMARK   53  A    between atoms: _128  and  _131
REMARK   54  A    between atoms: _131  and  _132
REMARK   55  A    between atoms: _135  and  _137
REMARK   56  A    between atoms: _137  and  _138
REMARK   57  A    between atoms: _137  and  _140
REMARK   58  A    between atoms: _140  and  _141
REMARK   59  A    between atoms: _141  and  _142
REMARK   60  A    between atoms: _142  and  _143
REMARK   61  A    between atoms: _152  and  _154
REMARK   62  A    between atoms: _154  and  _155
REMARK   63  A    between atoms: _154  and  _157
REMARK   64  A    between atoms: _157  and  _158
REMARK   65  A    between atoms: _158  and  _159
REMARK   66  A    between atoms: _159  and  _160
REMARK   67  A    between atoms: _169  and  _171
REMARK   68  A    between atoms: _171  and  _172
REMARK   69  A    between atoms: _171  and  _174
REMARK   70  A    between atoms: _174  and  _175
REMARK   71  A    between atoms: _180  and  _182
REMARK   72  A    between atoms: _182  and  _183
REMARK   73  A    between atoms: _182  and  _185
REMARK   74  A    between atoms: _185  and  _186
REMARK   75  A    between atoms: _191  and  _193
REMARK   76  A    between atoms: _193  and  _194
REMARK   77  A    between atoms: _193  and  _196
REMARK   78  A    between atoms: _196  and  _197
REMARK   79  A    between atoms: _200  and  _202
REMARK   80  A    between atoms: _202  and  _203
REMARK   81  A    between atoms: _202  and  _205
REMARK   82  A    between atoms: _208  and  _210
REMARK   83  A    between atoms: _210  and  _211
REMARK   84  A    between atoms: _210  and  _213
REMARK   85  A    between atoms: _213  and  _214
REMARK   86  A    between atoms: _217  and  _219
REMARK   87  A    between atoms: _219  and  _220
REMARK   88  A    between atoms: _219  and  _222
REMARK   89  A    between atoms: _222  and  _223
REMARK   90  A    between atoms: _229  and  _231
REMARK   91  A    between atoms: _231  and  _232
REMARK   92  A    between atoms: _231  and  _234
REMARK   93  A    between atoms: _234  and  _235
REMARK   94  A    between atoms: _240  and  _241
REMARK   95  A    between atoms: _243  and  _245
REMARK   96  A    between atoms: _245  and  _246
REMARK   97  A    between atoms: _245  and  _248
REMARK   98  A    between atoms: _248  and  _249
REMARK   99  A    between atoms: _249  and  _250
REMARK  100  A    between atoms: _252  and  _254
REMARK  101  A    between atoms: _254  and  _255
REMARK  102  A    between atoms: _254  and  _257
REMARK  103  A    between atoms: _257  and  _258
REMARK  104  A    between atoms: _260  and  _262
REMARK  105  A    between atoms: _262  and  _263
REMARK  106  A    between atoms: _262  and  _265
REMARK  107  A    between atoms: _265  and  _266
REMARK  108  A    between atoms: _266  and  _267
REMARK  109  A    between atoms: _267  and  _268
REMARK  110  A    between atoms: _277  and  _279
REMARK  111  A    between atoms: _279  and  _280
REMARK  112  A    between atoms: _279  and  _282
REMARK  113  A    between atoms: _282  and  _283
REMARK  114  A    between atoms: _286  and  _288
REMARK  115  A    between atoms: _288  and  _289
REMARK  116  A    between atoms: _288  and  _291
REMARK  117  A    between atoms: _291  and  _292
REMARK  118  A    between atoms: _294  and  _296
REMARK  119  A    between atoms: _296  and  _297
REMARK  120  A    between atoms: _296  and  _299
REMARK  121  A    between atoms: _299  and  _300
REMARK  122  A    between atoms: _303  and  _305
REMARK  123  A    between atoms: _305  and  _306
REMARK  124  A    between atoms: _305  and  _308
REMARK  125  A    between atoms: _308  and  _309
REMARK  126  A    between atoms: _309  and  _310
REMARK  127  A    between atoms: _310  and  _311
REMARK  128  A    between atoms: _320  and  _322
REMARK  129  A    between atoms: _322  and  _323
REMARK  130  A    between atoms: _322  and  _325
REMARK  131  A    between atoms: _325  and  _326
REMARK  132  A    between atoms: _326  and  _327
REMARK  133  A    between atoms: _329  and  _331
REMARK  134  A    between atoms: _331  and  _332
REMARK  135  A    between atoms: _331  and  _334
REMARK  136  A    between atoms: _334  and  _335
REMARK  137  A    between atoms: _338  and  _340
REMARK  138  A    between atoms: _340  and  _341
REMARK  139  A    between atoms: _340  and  _343
REMARK  140  A    between atoms: _343  and  _344
REMARK                            x       y       z     vdW  Elec       q    Type
REMARK                         _______ _______ _______ _____ _____    ______ ____
ROOT
ATOM      1  CA  ILE A   6       1.248  32.222  -5.469  0.00  0.00    +0.149 C 
ENDROOT
BRANCH   1   2
ATOM      2  C   ILE A   6       0.964  33.201  -4.299  0.00  0.00    +0.241 C 
ATOM      3  N   SER A   7       2.024  33.696  -3.676  0.00  0.00    -0.295 N 
ATOM      4  H   SER A   7       2.968  33.415  -4.010  0.00  0.00    +0.150 HD
ATOM      5  O   ILE A   6      -0.179  33.537  -4.043  0.00  0.00    -0.273 OA
BRANCH   3   6
ATOM      6  CA  SER A   7       1.935  34.623  -2.535  0.00  0.00    +0.178 C 
BRANCH   6   7
ATOM      7  C   SER A   7       1.272  35.953  -2.890  0.00  0.00    +0.243 C 
ATOM      8  O   SER A   7       0.440  36.469  -2.114  0.00  0.00    -0.273 OA
ATOM      9  N   ILE A   8       1.640  36.514  -4.050  0.00  0.00    -0.297 N 
ATOM     10  H   ILE A   8       2.311  36.011  -4.666  0.00  0.00    +0.150 HD
BRANCH   9  11
ATOM     11  CA  ILE A   8       1.125  37.808  -4.470  0.00  0.00    +0.149 C 
BRANCH  11  12
ATOM     12  C   ILE A   8      -0.351  37.672  -4.838  0.00  0.00    +0.241 C 
ATOM     13  O   ILE A   8      -1.169  38.510  -4.465  0.00  0.00    -0.273 OA
ATOM     14  N   ARG A   9      -0.674  36.590  -5.548  0.00  0.00    -0.297 N 
ATOM     15  H   ARG A   9       0.087  35.942  -5.835  0.00  0.00    +0.150 HD
BRANCH  14  16
ATOM     16  CA  ARG A   9      -2.047  36.268  -5.944  0.00  0.00    +0.149 C 
BRANCH  16  17
ATOM     17  C   ARG A   9      -2.966  36.033  -4.733  0.00  0.00    +0.241 C 
ATOM     18  N   MET A  10      -2.457  35.304  -3.741  0.00  0.00    -0.297 N 
ATOM     19  H   MET A  10      -1.542  34.834  -3.893  0.00  0.00    +0.150 HD
ATOM     20  O   ARG A   9      -4.085  36.541  -4.690  0.00  0.00    -0.273 OA
BRANCH  18  21
ATOM     21  CA  MET A  10      -3.121  35.131  -2.448  0.00  0.00    +0.149 C 
BRANCH  21  22
ATOM     22  C   MET A  10      -3.576  36.487  -1.836  0.00  0.00    +0.241 C 
ATOM     23  O   MET A  10      -4.738  36.665  -1.463  0.00  0.00    -0.273 OA
ATOM     24  N   LEU A  11      -2.672  37.454  -1.772  0.00  0.00    -0.297 N 
ATOM     25  H   LEU A  11      -1.716  37.278  -2.142  0.00  0.00    +0.150 HD
BRANCH  24  26
ATOM     26  CA  LEU A  11      -2.985  38.778  -1.189  0.00  0.00    +0.149 C 
BRANCH  26  27
ATOM     27  C   LEU A  11      -4.000  39.530  -2.042  0.00  0.00    +0.241 C 
ATOM     28  O   LEU A  11      -4.891  40.208  -1.513  0.00  0.00    -0.273 OA
ATOM     29  N   LEU A  12      -3.842  39.434  -3.364  0.00  0.00    -0.298 N 
ATOM     30  H   LEU A  12      -3.049  38.876  -3.740  0.00  0.00    +0.150 HD
BRANCH  29  31
ATOM     31  CA  LEU A  12      -4.766  40.101  -4.308  0.00  0.00    +0.137 C 
BRANCH  31  32
ATOM     32  C   LEU A  12      -6.162  39.483  -4.233  0.00  0.00    +0.227 C 
ATOM     33  O   LEU A  12      -7.162  40.210  -4.198  0.00  0.00    -0.286 OA
ENDBRANCH  31  32
BRANCH  31  34
ATOM     34  CB  LEU A  12      -4.235  40.045  -5.753  0.00  0.00    +0.028 C 
BRANCH  34  35
ATOM     35  CG  LEU A  12      -2.945  40.794  -6.101  0.00  0.00    +0.002 C 
ATOM     36  CD2 LEU A  12      -3.076  42.265  -5.827  0.00  0.00    +0.000 C 
ATOM     37  CD1 LEU A  12      -2.593  40.559  -7.551  0.00  0.00    +0.000 C 
ENDBRANCH  34  35
ENDBRANCH  31  34
ENDBRANCH  29  31
ENDBRANCH  26  27
BRANCH  26  38
ATOM     38  CB  LEU A  11      -1.719  39.644  -1.042  0.00  0.00    +0.029 C 
BRANCH  38  39
ATOM     39  CG  LEU A  11      -0.499  39.138  -0.226  0.00  0.00    +0.002 C 
ATOM     40  CD2 LEU A  11      -0.864  38.802   1.212  0.00  0.00    +0.000 C 
ATOM     41  CD1 LEU A  11       0.645  40.147  -0.262  0.00  0.00    +0.000 C 
ENDBRANCH  38  39
ENDBRANCH  26  38
ENDBRANCH  24  26
ENDBRANCH  21  22
BRANCH  21  42
ATOM     42  CB  MET A  10      -2.182  34.363  -1.497  0.00  0.00    +0.041 C 
BRANCH  42  43
ATOM     43  CG  MET A  10      -2.797  34.021  -0.139  0.00  0.00    +0.060 C 
BRANCH  43  44
ATOM     44  SD  MET A  10      -4.028  32.724  -0.321  0.00  0.00    -0.139 S 
ATOM     45  CE  MET A  10      -4.958  32.930   1.194  0.00  0.00    +0.069 C 
ENDBRANCH  43  44
ENDBRANCH  42  43
ENDBRANCH  21  42
ENDBRANCH  18  21
ENDBRANCH  16  17
BRANCH  16  46
ATOM     46  CB  ARG A   9      -1.998  35.025  -6.811  0.00  0.00    +0.033 C 
BRANCH  46  47
ATOM     47  CG  ARG A   9      -3.089  34.896  -7.686  0.00  0.00    +0.045 C 
BRANCH  47  48
ATOM     48  CD  ARG A   9      -2.955  35.914  -8.776  0.00  0.00    +0.174 C 
BRANCH  48  49
ATOM     49  NE  ARG A   9      -4.151  35.820  -9.576  0.00  0.00    -0.265 N 
ATOM     50  HE  ARG A   9      -4.720  34.954  -9.491  0.00  0.00    +0.259 HD
ATOM     51  CZ  ARG A   9      -4.577  36.754 -10.409  0.00  0.00    +0.342 C 
ATOM     52  NH2 ARG A   9      -3.906  37.899 -10.582  0.00  0.00    -0.292 N 
ATOM     53 HH21 ARG A   9      -3.026  38.071 -10.054  0.00  0.00    +0.255 HD
ATOM     54 HH22 ARG A   9      -4.264  38.617 -11.244  0.00  0.00    +0.255 HD
ATOM     55  NH1 ARG A   9      -5.694  36.519 -11.060  0.00  0.00    -0.292 N 
ATOM     56 HH11 ARG A   9      -6.206  35.626 -10.910  0.00  0.00    +0.255 HD
ATOM     57 HH12 ARG A   9      -6.066  37.226 -11.726  0.00  0.00    +0.255 HD
ENDBRANCH  48  49
ENDBRANCH  47  48
ENDBRANCH  46  47
ENDBRANCH  16  46
ENDBRANCH  14  16
ENDBRANCH  11  12
BRANCH  11  58
ATOM     58  CB  ILE A   8       1.970  38.435  -5.622  0.00  0.00    +0.027 C 
ATOM     59  CG2 ILE A   8       1.269  39.644  -6.204  0.00  0.00    +0.002 C 
BRANCH  58  60
ATOM     60  CG1 ILE A   8       3.343  38.868  -5.073  0.00  0.00    +0.002 C 
ATOM     61  CD1 ILE A   8       4.316  39.401  -6.132  0.00  0.00    +0.000 C 
ENDBRANCH  58  60
ENDBRANCH  11  58
ENDBRANCH   9  11
ENDBRANCH   6   7
BRANCH   6  62
ATOM     62  CB  SER A   7       3.321  34.822  -1.934  0.00  0.00    +0.166 C 
BRANCH  62  63
ATOM     63  OG  SER A   7       3.998  35.910  -2.525  0.00  0.00    -0.380 OA
ATOM     64  H   SER A   7       4.101  35.745  -3.496  0.00  0.00    +0.211 HD
ENDBRANCH  62  63
ENDBRANCH   6  62
ENDBRANCH   3   6
ENDBRANCH   1   2
BRANCH   1  66
ATOM     65  C   ARG A   5       2.136  34.000  -6.886  0.00  0.00    +0.241 C 
ATOM     66  N   ILE A   6       2.261  32.807  -6.340  0.00  0.00    -0.297 N 
ATOM     67  H   ILE A   6       3.121  32.258  -6.539  0.00  0.00    +0.150 HD
ATOM     68  O   ARG A   5       1.103  34.680  -6.813  0.00  0.00    -0.273 OA
BRANCH  65  69
ATOM     69  CA  ARG A   5       3.347  34.514  -7.653  0.00  0.00    +0.149 C 
BRANCH  69  72
ATOM     70  C   SER A   4       4.895  34.848  -5.802  0.00  0.00    +0.243 C 
ATOM     71  O   SER A   4       4.097  35.552  -5.191  0.00  0.00    -0.273 OA
ATOM     72  N   ARG A   5       4.606  34.276  -6.973  0.00  0.00    -0.297 N 
ATOM     73  H   ARG A   5       5.304  33.641  -7.411  0.00  0.00    +0.150 HD
BRANCH  70  74
ATOM     74  CA  SER A   4       6.266  34.549  -5.210  0.00  0.00    +0.178 C 
BRANCH  74  77
ATOM     75  C   MET A   3       5.744  32.169  -4.924  0.00  0.00    +0.241 C 
ATOM     76  O   MET A   3       4.699  32.408  -4.313  0.00  0.00    -0.273 OA
ATOM     77  N   SER A   4       6.592  33.124  -5.312  0.00  0.00    -0.295 N 
ATOM     78  H   SER A   4       7.516  32.847  -5.700  0.00  0.00    +0.150 HD
BRANCH  75  79
ATOM     79  CA  MET A   3       6.140  30.732  -5.291  0.00  0.00    +0.149 C 
BRANCH  79  81
ATOM     80  C   TYR A   2       5.600  30.827  -7.667  0.00  0.00    +0.241 C 
ATOM     81  N   MET A   3       6.519  30.641  -6.730  0.00  0.00    -0.297 N 
ATOM     82  H   MET A   3       7.502  30.432  -6.998  0.00  0.00    +0.150 HD
ATOM     83  O   TYR A   2       4.413  31.047  -7.396  0.00  0.00    -0.273 OA
BRANCH  80  84
ATOM     84  CA  TYR A   2       6.087  30.849  -9.133  0.00  0.00    +0.153 C 
BRANCH  84  87
ATOM     85  C   PHE A   1       7.611  32.735  -9.081  0.00  0.00    +0.239 C 
ATOM     86  O   PHE A   1       6.681  33.497  -8.794  0.00  0.00    -0.274 OA
ATOM     87  N   TYR A   2       7.424  31.436  -9.262  0.00  0.00    -0.297 N 
ATOM     88  H   TYR A   2       8.233  30.827  -9.498  0.00  0.00    +0.150 HD
BRANCH  85  89
ATOM     89  CA  PHE A   1       9.060  33.267  -9.252  0.00  0.00    +0.149 C 
BRANCH  89  90
ATOM     90  N   PHE A   1      10.081  32.542  -8.486  0.00  0.00    -0.238 NA
ATOM     91  H   PHE A   1      10.921  32.196  -8.992  0.00  0.00    +0.142 HD
ENDBRANCH  89  90
BRANCH  89  92
ATOM     92  CB  PHE A   1       9.429  33.270 -10.755  0.00  0.00    +0.053 C 
BRANCH  92  93
ATOM     93  CG  PHE A   1       8.450  34.024 -11.594  0.00  0.00    -0.020 A 
ATOM     94  CD2 PHE A   1       8.526  35.411 -11.664  0.00  0.00    -0.004 A 
ATOM     95  CE2 PHE A   1       7.596  36.146 -12.379  0.00  0.00    -0.000 A 
ATOM     96  CZ  PHE A   1       6.567  35.495 -13.066  0.00  0.00    -0.000 A 
ATOM     97  CE1 PHE A   1       6.469  34.085 -13.002  0.00  0.00    -0.000 A 
ATOM     98  CD1 PHE A   1       7.416  33.363 -12.256  0.00  0.00    -0.004 A 
ENDBRANCH  92  93
ENDBRANCH  89  92
ENDBRANCH  85  89
ENDBRANCH  84  87
BRANCH  84  99
ATOM     99  CB  TYR A   2       6.058  29.455  -9.730  0.00  0.00    +0.055 C 
BRANCH  99 100
ATOM    100  CG  TYR A   2       6.062  29.437 -11.267  0.00  0.00    -0.020 A 
ATOM    101  CD2 TYR A   2       6.872  28.538 -11.979  0.00  0.00    -0.001 A 
ATOM    102  CE2 TYR A   2       6.850  28.505 -13.415  0.00  0.00    +0.036 A 
ATOM    103  CZ  TYR A   2       6.019  29.373 -14.103  0.00  0.00    +0.134 A 
ATOM    104  CE1 TYR A   2       5.200  30.260 -13.412  0.00  0.00    +0.036 A 
ATOM    105  CD1 TYR A   2       5.214  30.283 -11.999  0.00  0.00    -0.001 A 
BRANCH 103 106
ATOM    106  OH  TYR A   2       5.947  29.315 -15.506  0.00  0.00    -0.506 OA
ATOM    107  HH  TYR A   2       5.310  30.000 -15.831  0.00  0.00    +0.292 HD
ENDBRANCH 103 106
ENDBRANCH  99 100
ENDBRANCH  84  99
ENDBRANCH  80  84
ENDBRANCH  79  81
BRANCH  79 108
ATOM    108  CB  MET A   3       7.284  30.246  -4.373  0.00  0.00    +0.041 C 
BRANCH 108 109
ATOM    109  CG  MET A   3       6.885  30.245  -2.869  0.00  0.00    +0.060 C 
BRANCH 109 110
ATOM    110  SD  MET A   3       5.687  28.938  -2.559  0.00  0.00    -0.139 S 
ATOM    111  CE  MET A   3       6.777  27.604  -2.099  0.00  0.00    +0.069 C 
ENDBRANCH 109 110
ENDBRANCH 108 109
ENDBRANCH  79 108
ENDBRANCH  75  79
ENDBRANCH  74  77
BRANCH  74 112
ATOM    112  CB  SER A   4       7.331  35.415  -5.888  0.00  0.00    +0.166 C 
BRANCH 112 113
ATOM    113  OG  SER A   4       6.841  36.720  -6.225  0.00  0.00    -0.380 OA
ATOM    114  H   SER A   4       6.075  36.633  -6.847  0.00  0.00    +0.211 HD
ENDBRANCH 112 113
ENDBRANCH  74 112
ENDBRANCH  70  74
ENDBRANCH  69  72
BRANCH  69 115
ATOM    115  CB  ARG A   5       3.398  33.987  -9.116  0.00  0.00    +0.033 C 
BRANCH 115 116
ATOM    116  CG  ARG A   5       2.055  33.652  -9.858  0.00  0.00    +0.045 C 
BRANCH 116 117
ATOM    117  CD  ARG A   5       1.151  34.840 -10.176  0.00  0.00    +0.174 C 
BRANCH 117 118
ATOM    118  NE  ARG A   5       0.392  34.791 -11.456  0.00  0.00    -0.265 N 
ATOM    119  CZ  ARG A   5      -0.631  33.974 -11.786  0.00  0.00    +0.342 C 
ATOM    120  NH2 ARG A   5      -1.088  33.021 -10.969  0.00  0.00    -0.292 N 
ATOM    121 HH21 ARG A   5      -0.653  32.885 -10.034  0.00  0.00    +0.255 HD
ATOM    122 HH22 ARG A   5      -1.879  32.416 -11.268  0.00  0.00    +0.255 HD
ATOM    123  NH1 ARG A   5      -1.218  34.107 -12.991  0.00  0.00    -0.292 N 
ATOM    124 HH11 ARG A   5      -2.007  33.484 -13.257  0.00  0.00    +0.255 HD
ATOM    125 HH12 ARG A   5      -0.882  34.833 -13.656  0.00  0.00    +0.255 HD
ATOM    126  HE  ARG A   5       0.686  35.470 -12.186  0.00  0.00    +0.259 HD
ENDBRANCH 117 118
ENDBRANCH 116 117
ENDBRANCH 115 116
ENDBRANCH  69 115
ENDBRANCH  65  69
ENDBRANCH   1  66
BRANCH   1 127
ATOM    127  CB  ILE A   6       1.673  30.798  -5.000  0.00  0.00    +0.027 C 
ATOM    128  CG2 ILE A   6       0.755  30.318  -3.871  0.00  0.00    +0.002 C 
BRANCH 127 129
ATOM    129  CG1 ILE A   6       1.641  29.801  -6.211  0.00  0.00    +0.002 C 
ATOM    130  CD1 ILE A   6       2.341  28.484  -5.969  0.00  0.00    +0.000 C 
ENDBRANCH 127 129
ENDBRANCH   1 127
TORSDOF 55
REMARK  Name = ../refined-set-2016/2q8h/2q8h_pocket.pdb
REMARK  140 active torsions:
REMARK  status: ('A' for Active; 'I' for Inactive)
REMARK    1  A    between atoms: _1  and  _3
REMARK    2  A    between atoms: _3  and  _4
REMARK    3  A    between atoms: _3  and  _6
REMARK    4  A    between atoms: _6  and  _7
REMARK    5  A    between atoms: _10  and  _12
REMARK    6  A    between atoms: _12  and  _13
REMARK    7  A    between atoms: _12  and  _15
REMARK    8  A    between atoms: _15  and  _16
REMARK    9  A    between atoms: _16  and  _17
REMARK   10  A    between atoms: _17  and  _18
REMARK   11  A    between atoms: _27  and  _29
REMARK   12  A    between atoms: _29  and  _30
REMARK   13  A    between atoms: _29  and  _32
REMARK   14  A    between atoms: _32  and  _33
REMARK   15  A    between atoms: _36  and  _38
REMARK   16  A    between atoms: _38  and  _39
REMARK   17  A    between atoms: _38  and  _41
REMARK   18  A    between atoms: _41  and  _42
REMARK   19  A    between atoms: _45  and  _47
REMARK   20  A    between atoms: _47  and  _48
REMARK   21  A    between atoms: _47  and  _50
REMARK   22  A    between atoms: _50  and  _51
REMARK   23  A    between atoms: _51  and  _52
REMARK   24  A    between atoms: _54  and  _56
REMARK   25  A    between atoms: _56  and  _57
REMARK   26  A    between atoms: _56  and  _59
REMARK   27  A    between atoms: _62  and  _64
REMARK   28  A    between atoms: _64  and  _65
REMARK   29  A    between atoms: _64  and  _67
REMARK   30  A    between atoms: _67  and  _68
REMARK   31  A    between atoms: _78  and  _80
REMARK   32  A    between atoms: _80  and  _81
REMARK   33  A    between atoms: _80  and  _83
REMARK   34  A    between atoms: _83  and  _84
REMARK   35  A    between atoms: _89  and  _90
REMARK   36  A    between atoms: _92  and  _94
REMARK   37  A    between atoms: _94  and  _95
REMARK   38  A    between atoms: _94  and  _97
REMARK   39  A    between atoms: _97  and  _98
REMARK   40  A    between atoms: _100  and  _102
REMARK   41  A    between atoms: _102  and  _103
REMARK   42  A    between atoms: _102  and  _105
REMARK   43  A    between atoms: _105  and  _106
REMARK   44  A    between atoms: _109  and  _111
REMARK   45  A    between atoms: _111  and  _112
REMARK   46  A    between atoms: _111  and  _114
REMARK   47  A    between atoms: _114  and  _115
REMARK   48  A    between atoms: _118  and  _120
REMARK   49  A    between atoms: _120  and  _121
REMARK   50  A    between atoms: _120  and  _123
REMARK   51  A    between atoms: _126  and  _128
REMARK   52  A    between atoms: _128  and  _129
REMARK   53  A    between atoms: _128  and  _131
REMARK   54  A    between atoms: _131  and  _132
REMARK   55  A    between atoms: _135  and  _137
REMARK   56  A    between atoms: _137  and  _138
REMARK   57  A    between atoms: _137  and  _140
REMARK   58  A    between atoms: _140  and  _141
REMARK   59  A    between atoms: _141  and  _142
REMARK   60  A    between atoms: _142  and  _143
REMARK   61  A    between atoms: _152  and  _154
REMARK   62  A    between atoms: _154  and  _155
REMARK   63  A    between atoms: _154  and  _157
REMARK   64  A    between atoms: _157  and  _158
REMARK   65  A    between atoms: _158  and  _159
REMARK   66  A    between atoms: _159  and  _160
REMARK   67  A    between atoms: _169  and  _171
REMARK   68  A    between atoms: _171  and  _172
REMARK   69  A    between atoms: _171  and  _174
REMARK   70  A    between atoms: _174  and  _175
REMARK   71  A    between atoms: _180  and  _182
REMARK   72  A    between atoms: _182  and  _183
REMARK   73  A    between atoms: _182  and  _185
REMARK   74  A    between atoms: _185  and  _186
REMARK   75  A    between atoms: _191  and  _193
REMARK   76  A    between atoms: _193  and  _194
REMARK   77  A    between atoms: _193  and  _196
REMARK   78  A    between atoms: _196  and  _197
REMARK   79  A    between atoms: _200  and  _202
REMARK   80  A    between atoms: _202  and  _203
REMARK   81  A    between atoms: _202  and  _205
REMARK   82  A    between atoms: _208  and  _210
REMARK   83  A    between atoms: _210  and  _211
REMARK   84  A    between atoms: _210  and  _213
REMARK   85  A    between atoms: _213  and  _214
REMARK   86  A    between atoms: _217  and  _219
REMARK   87  A    between atoms: _219  and  _220
REMARK   88  A    between atoms: _219  and  _222
REMARK   89  A    between atoms: _222  and  _223
REMARK   90  A    between atoms: _229  and  _231
REMARK   91  A    between atoms: _231  and  _232
REMARK   92  A    between atoms: _231  and  _234
REMARK   93  A    between atoms: _234  and  _235
REMARK   94  A    between atoms: _240  and  _241
REMARK   95  A    between atoms: _243  and  _245
REMARK   96  A    between atoms: _245  and  _246
REMARK   97  A    between atoms: _245  and  _248
REMARK   98  A    between atoms: _248  and  _249
REMARK   99  A    between atoms: _249  and  _250
REMARK  100  A    between atoms: _252  and  _254
REMARK  101  A    between atoms: _254  and  _255
REMARK  102  A    between atoms: _254  and  _257
REMARK  103  A    between atoms: _257  and  _258
REMARK  104  A    between atoms: _260  and  _262
REMARK  105  A    between atoms: _262  and  _263
REMARK  106  A    between atoms: _262  and  _265
REMARK  107  A    between atoms: _265  and  _266
REMARK  108  A    between atoms: _266  and  _267
REMARK  109  A    between atoms: _267  and  _268
REMARK  110  A    between atoms: _277  and  _279
REMARK  111  A    between atoms: _279  and  _280
REMARK  112  A    between atoms: _279  and  _282
REMARK  113  A    between atoms: _282  and  _283
REMARK  114  A    between atoms: _286  and  _288
REMARK  115  A    between atoms: _288  and  _289
REMARK  116  A    between atoms: _288  and  _291
REMARK  117  A    between atoms: _291  and  _292
REMARK  118  A    between atoms: _294  and  _296
REMARK  119  A    between atoms: _296  and  _297
REMARK  120  A    between atoms: _296  and  _299
REMARK  121  A    between atoms: _299  and  _300
REMARK  122  A    between atoms: _303  and  _305
REMARK  123  A    between atoms: _305  and  _306
REMARK  124  A    between atoms: _305  and  _308
REMARK  125  A    between atoms: _308  and  _309
REMARK  126  A    between atoms: _309  and  _310
REMARK  127  A    between atoms: _310  and  _311
REMARK  128  A    between atoms: _320  and  _322
REMARK  129  A    between atoms: _322  and  _323
REMARK  130  A    between atoms: _322  and  _325
REMARK  131  A    between atoms: _325  and  _326
REMARK  132  A    between atoms: _326  and  _327
REMARK  133  A    between atoms: _329  and  _331
REMARK  134  A    between atoms: _331  and  _332
REMARK  135  A    between atoms: _331  and  _334
REMARK  136  A    between atoms: _334  and  _335
REMARK  137  A    between atoms: _338  and  _340
REMARK  138  A    between atoms: _340  and  _341
REMARK  139  A    between atoms: _340  and  _343
REMARK  140  A    between atoms: _343  and  _344
REMARK                            x       y       z     vdW  Elec       q    Type
REMARK                         _______ _______ _______ _____ _____    ______ ____
ROOT
ATOM      1  O   HOH     1       6.123  36.458  -8.817  0.00  0.00    +0.000 OA
ENDROOT
TORSDOF 0
REMARK  Name = ../refined-set-2016/2q8h/2q8h_pocket.pdb
REMARK  140 active torsions:
REMARK  status: ('A' for Active; 'I' for Inactive)
REMARK    1  A    between atoms: _1  and  _3
REMARK    2  A    between atoms: _3  and  _4
REMARK    3  A    between atoms: _3  and  _6
REMARK    4  A    between atoms: _6  and  _7
REMARK    5  A    between atoms: _10  and  _12
REMARK    6  A    between atoms: _12  and  _13
REMARK    7  A    between atoms: _12  and  _15
REMARK    8  A    between atoms: _15  and  _16
REMARK    9  A    between atoms: _16  and  _17
REMARK   10  A    between atoms: _17  and  _18
REMARK   11  A    between atoms: _27  and  _29
REMARK   12  A    between atoms: _29  and  _30
REMARK   13  A    between atoms: _29  and  _32
REMARK   14  A    between atoms: _32  and  _33
REMARK   15  A    between atoms: _36  and  _38
REMARK   16  A    between atoms: _38  and  _39
REMARK   17  A    between atoms: _38  and  _41
REMARK   18  A    between atoms: _41  and  _42
REMARK   19  A    between atoms: _45  and  _47
REMARK   20  A    between atoms: _47  and  _48
REMARK   21  A    between atoms: _47  and  _50
REMARK   22  A    between atoms: _50  and  _51
REMARK   23  A    between atoms: _51  and  _52
REMARK   24  A    between atoms: _54  and  _56
REMARK   25  A    between atoms: _56  and  _57
REMARK   26  A    between atoms: _56  and  _59
REMARK   27  A    between atoms: _62  and  _64
REMARK   28  A    between atoms: _64  and  _65
REMARK   29  A    between atoms: _64  and  _67
REMARK   30  A    between atoms: _67  and  _68
REMARK   31  A    between atoms: _78  and  _80
REMARK   32  A    between atoms: _80  and  _81
REMARK   33  A    between atoms: _80  and  _83
REMARK   34  A    between atoms: _83  and  _84
REMARK   35  A    between atoms: _89  and  _90
REMARK   36  A    between atoms: _92  and  _94
REMARK   37  A    between atoms: _94  and  _95
REMARK   38  A    between atoms: _94  and  _97
REMARK   39  A    between atoms: _97  and  _98
REMARK   40  A    between atoms: _100  and  _102
REMARK   41  A    between atoms: _102  and  _103
REMARK   42  A    between atoms: _102  and  _105
REMARK   43  A    between atoms: _105  and  _106
REMARK   44  A    between atoms: _109  and  _111
REMARK   45  A    between atoms: _111  and  _112
REMARK   46  A    between atoms: _111  and  _114
REMARK   47  A    between atoms: _114  and  _115
REMARK   48  A    between atoms: _118  and  _120
REMARK   49  A    between atoms: _120  and  _121
REMARK   50  A    between atoms: _120  and  _123
REMARK   51  A    between atoms: _126  and  _128
REMARK   52  A    between atoms: _128  and  _129
REMARK   53  A    between atoms: _128  and  _131
REMARK   54  A    between atoms: _131  and  _132
REMARK   55  A    between atoms: _135  and  _137
REMARK   56  A    between atoms: _137  and  _138
REMARK   57  A    between atoms: _137  and  _140
REMARK   58  A    between atoms: _140  and  _141
REMARK   59  A    between atoms: _141  and  _142
REMARK   60  A    between atoms: _142  and  _143
REMARK   61  A    between atoms: _152  and  _154
REMARK   62  A    between atoms: _154  and  _155
REMARK   63  A    between atoms: _154  and  _157
REMARK   64  A    between atoms: _157  and  _158
REMARK   65  A    between atoms: _158  and  _159
REMARK   66  A    between atoms: _159  and  _160
REMARK   67  A    between atoms: _169  and  _171
REMARK   68  A    between atoms: _171  and  _172
REMARK   69  A    between atoms: _171  and  _174
REMARK   70  A    between atoms: _174  and  _175
REMARK   71  A    between atoms: _180  and  _182
REMARK   72  A    between atoms: _182  and  _183
REMARK   73  A    between atoms: _182  and  _185
REMARK   74  A    between atoms: _185  and  _186
REMARK   75  A    between atoms: _191  and  _193
REMARK   76  A    between atoms: _193  and  _194
REMARK   77  A    between atoms: _193  and  _196
REMARK   78  A    between atoms: _196  and  _197
REMARK   79  A    between atoms: _200  and  _202
REMARK   80  A    between atoms: _202  and  _203
REMARK   81  A    between atoms: _202  and  _205
REMARK   82  A    between atoms: _208  and  _210
REMARK   83  A    between atoms: _210  and  _211
REMARK   84  A    between atoms: _210  and  _213
REMARK   85  A    between atoms: _213  and  _214
REMARK   86  A    between atoms: _217  and  _219
REMARK   87  A    between atoms: _219  and  _220
REMARK   88  A    between atoms: _219  and  _222
REMARK   89  A    between atoms: _222  and  _223
REMARK   90  A    between atoms: _229  and  _231
REMARK   91  A    between atoms: _231  and  _232
REMARK   92  A    between atoms: _231  and  _234
REMARK   93  A    between atoms: _234  and  _235
REMARK   94  A    between atoms: _240  and  _241
REMARK   95  A    between atoms: _243  and  _245
REMARK   96  A    between atoms: _245  and  _246
REMARK   97  A    between atoms: _245  and  _248
REMARK   98  A    between atoms: _248  and  _249
REMARK   99  A    between atoms: _249  and  _250
REMARK  100  A    between atoms: _252  and  _254
REMARK  101  A    between atoms: _254  and  _255
REMARK  102  A    between atoms: _254  and  _257
REMARK  103  A    between atoms: _257  and  _258
REMARK  104  A    between atoms: _260  and  _262
REMARK  105  A    between atoms: _262  and  _263
REMARK  106  A    between atoms: _262  and  _265
REMARK  107  A    between atoms: _265  and  _266
REMARK  108  A    between atoms: _266  and  _267
REMARK  109  A    between atoms: _267  and  _268
REMARK  110  A    between atoms: _277  and  _279
REMARK  111  A    between atoms: _279  and  _280
REMARK  112  A    between atoms: _279  and  _282
REMARK  113  A    between atoms: _282  and  _283
REMARK  114  A    between atoms: _286  and  _288
REMARK  115  A    between atoms: _288  and  _289
REMARK  116  A    between atoms: _288  and  _291
REMARK  117  A    between atoms: _291  and  _292
REMARK  118  A    between atoms: _294  and  _296
REMARK  119  A    between atoms: _296  and  _297
REMARK  120  A    between atoms: _296  and  _299
REMARK  121  A    between atoms: _299  and  _300
REMARK  122  A    between atoms: _303  and  _305
REMARK  123  A    between atoms: _305  and  _306
REMARK  124  A    between atoms: _305  and  _308
REMARK  125  A    between atoms: _308  and  _309
REMARK  126  A    between atoms: _309  and  _310
REMARK  127  A    between atoms: _310  and  _311
REMARK  128  A    between atoms: _320  and  _322
REMARK  129  A    between atoms: _322  and  _323
REMARK  130  A    between atoms: _322  and  _325
REMARK  131  A    between atoms: _325  and  _326
REMARK  132  A    between atoms: _326  and  _327
REMARK  133  A    between atoms: _329  and  _331
REMARK  134  A    between atoms: _331  and  _332
REMARK  135  A    between atoms: _331  and  _334
REMARK  136  A    between atoms: _334  and  _335
REMARK  137  A    between atoms: _338  and  _340
REMARK  138  A    between atoms: _340  and  _341
REMARK  139  A    between atoms: _340  and  _343
REMARK  140  A    between atoms: _343  and  _344
REMARK                            x       y       z     vdW  Elec       q    Type
REMARK                         _______ _______ _______ _____ _____    ______ ____
ROOT
ATOM      1  O   HOH     1       8.024  38.060  -4.146  0.00  0.00    +0.000 OA
ENDROOT
TORSDOF 0
REMARK  Name = ../refined-set-2016/2q8h/2q8h_pocket.pdb
REMARK  140 active torsions:
REMARK  status: ('A' for Active; 'I' for Inactive)
REMARK    1  A    between atoms: _1  and  _3
REMARK    2  A    between atoms: _3  and  _4
REMARK    3  A    between atoms: _3  and  _6
REMARK    4  A    between atoms: _6  and  _7
REMARK    5  A    between atoms: _10  and  _12
REMARK    6  A    between atoms: _12  and  _13
REMARK    7  A    between atoms: _12  and  _15
REMARK    8  A    between atoms: _15  and  _16
REMARK    9  A    between atoms: _16  and  _17
REMARK   10  A    between atoms: _17  and  _18
REMARK   11  A    between atoms: _27  and  _29
REMARK   12  A    between atoms: _29  and  _30
REMARK   13  A    between atoms: _29  and  _32
REMARK   14  A    between atoms: _32  and  _33
REMARK   15  A    between atoms: _36  and  _38
REMARK   16  A    between atoms: _38  and  _39
REMARK   17  A    between atoms: _38  and  _41
REMARK   18  A    between atoms: _41  and  _42
REMARK   19  A    between atoms: _45  and  _47
REMARK   20  A    between atoms: _47  and  _48
REMARK   21  A    between atoms: _47  and  _50
REMARK   22  A    between atoms: _50  and  _51
REMARK   23  A    between atoms: _51  and  _52
REMARK   24  A    between atoms: _54  and  _56
REMARK   25  A    between atoms: _56  and  _57
REMARK   26  A    between atoms: _56  and  _59
REMARK   27  A    between atoms: _62  and  _64
REMARK   28  A    between atoms: _64  and  _65
REMARK   29  A    between atoms: _64  and  _67
REMARK   30  A    between atoms: _67  and  _68
REMARK   31  A    between atoms: _78  and  _80
REMARK   32  A    between atoms: _80  and  _81
REMARK   33  A    between atoms: _80  and  _83
REMARK   34  A    between atoms: _83  and  _84
REMARK   35  A    between atoms: _89  and  _90
REMARK   36  A    between atoms: _92  and  _94
REMARK   37  A    between atoms: _94  and  _95
REMARK   38  A    between atoms: _94  and  _97
REMARK   39  A    between atoms: _97  and  _98
REMARK   40  A    between atoms: _100  and  _102
REMARK   41  A    between atoms: _102  and  _103
REMARK   42  A    between atoms: _102  and  _105
REMARK   43  A    between atoms: _105  and  _106
REMARK   44  A    between atoms: _109  and  _111
REMARK   45  A    between atoms: _111  and  _112
REMARK   46  A    between atoms: _111  and  _114
REMARK   47  A    between atoms: _114  and  _115
REMARK   48  A    between atoms: _118  and  _120
REMARK   49  A    between atoms: _120  and  _121
REMARK   50  A    between atoms: _120  and  _123
REMARK   51  A    between atoms: _126  and  _128
REMARK   52  A    between atoms: _128  and  _129
REMARK   53  A    between atoms: _128  and  _131
REMARK   54  A    between atoms: _131  and  _132
REMARK   55  A    between atoms: _135  and  _137
REMARK   56  A    between atoms: _137  and  _138
REMARK   57  A    between atoms: _137  and  _140
REMARK   58  A    between atoms: _140  and  _141
REMARK   59  A    between atoms: _141  and  _142
REMARK   60  A    between atoms: _142  and  _143
REMARK   61  A    between atoms: _152  and  _154
REMARK   62  A    between atoms: _154  and  _155
REMARK   63  A    between atoms: _154  and  _157
REMARK   64  A    between atoms: _157  and  _158
REMARK   65  A    between atoms: _158  and  _159
REMARK   66  A    between atoms: _159  and  _160
REMARK   67  A    between atoms: _169  and  _171
REMARK   68  A    between atoms: _171  and  _172
REMARK   69  A    between atoms: _171  and  _174
REMARK   70  A    between atoms: _174  and  _175
REMARK   71  A    between atoms: _180  and  _182
REMARK   72  A    between atoms: _182  and  _183
REMARK   73  A    between atoms: _182  and  _185
REMARK   74  A    between atoms: _185  and  _186
REMARK   75  A    between atoms: _191  and  _193
REMARK   76  A    between atoms: _193  and  _194
REMARK   77  A    between atoms: _193  and  _196
REMARK   78  A    between atoms: _196  and  _197
REMARK   79  A    between atoms: _200  and  _202
REMARK   80  A    between atoms: _202  and  _203
REMARK   81  A    between atoms: _202  and  _205
REMARK   82  A    between atoms: _208  and  _210
REMARK   83  A    between atoms: _210  and  _211
REMARK   84  A    between atoms: _210  and  _213
REMARK   85  A    between atoms: _213  and  _214
REMARK   86  A    between atoms: _217  and  _219
REMARK   87  A    between atoms: _219  and  _220
REMARK   88  A    between atoms: _219  and  _222
REMARK   89  A    between atoms: _222  and  _223
REMARK   90  A    between atoms: _229  and  _231
REMARK   91  A    between atoms: _231  and  _232
REMARK   92  A    between atoms: _231  and  _234
REMARK   93  A    between atoms: _234  and  _235
REMARK   94  A    between atoms: _240  and  _241
REMARK   95  A    between atoms: _243  and  _245
REMARK   96  A    between atoms: _245  and  _246
REMARK   97  A    between atoms: _245  and  _248
REMARK   98  A    between atoms: _248  and  _249
REMARK   99  A    between atoms: _249  and  _250
REMARK  100  A    between atoms: _252  and  _254
REMARK  101  A    between atoms: _254  and  _255
REMARK  102  A    between atoms: _254  and  _257
REMARK  103  A    between atoms: _257  and  _258
REMARK  104  A    between atoms: _260  and  _262
REMARK  105  A    between atoms: _262  and  _263
REMARK  106  A    between atoms: _262  and  _265
REMARK  107  A    between atoms: _265  and  _266
REMARK  108  A    between atoms: _266  and  _267
REMARK  109  A    between atoms: _267  and  _268
REMARK  110  A    between atoms: _277  and  _279
REMARK  111  A    between atoms: _279  and  _280
REMARK  112  A    between atoms: _279  and  _282
REMARK  113  A    between atoms: _282  and  _283
REMARK  114  A    between atoms: _286  and  _288
REMARK  115  A    between atoms: _288  and  _289
REMARK  116  A    between atoms: _288  and  _291
REMARK  117  A    between atoms: _291  and  _292
REMARK  118  A    between atoms: _294  and  _296
REMARK  119  A    between atoms: _296  and  _297
REMARK  120  A    between atoms: _296  and  _299
REMARK  121  A    between atoms: _299  and  _300
REMARK  122  A    between atoms: _303  and  _305
REMARK  123  A    between atoms: _305  and  _306
REMARK  124  A    between atoms: _305  and  _308
REMARK  125  A    between atoms: _308  and  _309
REMARK  126  A    between atoms: _309  and  _310
REMARK  127  A    between atoms: _310  and  _311
REMARK  128  A    between atoms: _320  and  _322
REMARK  129  A    between atoms: _322  and  _323
REMARK  130  A    between atoms: _322  and  _325
REMARK  131  A    between atoms: _325  and  _326
REMARK  132  A    between atoms: _326  and  _327
REMARK  133  A    between atoms: _329  and  _331
REMARK  134  A    between atoms: _331  and  _332
REMARK  135  A    between atoms: _331  and  _334
REMARK  136  A    between atoms: _334  and  _335
REMARK  137  A    between atoms: _338  and  _340
REMARK  138  A    between atoms: _340  and  _341
REMARK  139  A    between atoms: _340  and  _343
REMARK  140  A    between atoms: _343  and  _344
REMARK                            x       y       z     vdW  Elec       q    Type
REMARK                         _______ _______ _______ _____ _____    ______ ____
ROOT
ATOM      1  O   HOH     1      -3.203  31.742  -9.973  0.00  0.00    +0.000 OA
ENDROOT
TORSDOF 0
REMARK  Name = ../refined-set-2016/2q8h/2q8h_pocket.pdb
REMARK  140 active torsions:
REMARK  status: ('A' for Active; 'I' for Inactive)
REMARK    1  A    between atoms: _1  and  _3
REMARK    2  A    between atoms: _3  and  _4
REMARK    3  A    between atoms: _3  and  _6
REMARK    4  A    between atoms: _6  and  _7
REMARK    5  A    between atoms: _10  and  _12
REMARK    6  A    between atoms: _12  and  _13
REMARK    7  A    between atoms: _12  and  _15
REMARK    8  A    between atoms: _15  and  _16
REMARK    9  A    between atoms: _16  and  _17
REMARK   10  A    between atoms: _17  and  _18
REMARK   11  A    between atoms: _27  and  _29
REMARK   12  A    between atoms: _29  and  _30
REMARK   13  A    between atoms: _29  and  _32
REMARK   14  A    between atoms: _32  and  _33
REMARK   15  A    between atoms: _36  and  _38
REMARK   16  A    between atoms: _38  and  _39
REMARK   17  A    between atoms: _38  and  _41
REMARK   18  A    between atoms: _41  and  _42
REMARK   19  A    between atoms: _45  and  _47
REMARK   20  A    between atoms: _47  and  _48
REMARK   21  A    between atoms: _47  and  _50
REMARK   22  A    between atoms: _50  and  _51
REMARK   23  A    between atoms: _51  and  _52
REMARK   24  A    between atoms: _54  and  _56
REMARK   25  A    between atoms: _56  and  _57
REMARK   26  A    between atoms: _56  and  _59
REMARK   27  A    between atoms: _62  and  _64
REMARK   28  A    between atoms: _64  and  _65
REMARK   29  A    between atoms: _64  and  _67
REMARK   30  A    between atoms: _67  and  _68
REMARK   31  A    between atoms: _78  and  _80
REMARK   32  A    between atoms: _80  and  _81
REMARK   33  A    between atoms: _80  and  _83
REMARK   34  A    between atoms: _83  and  _84
REMARK   35  A    between atoms: _89  and  _90
REMARK   36  A    between atoms: _92  and  _94
REMARK   37  A    between atoms: _94  and  _95
REMARK   38  A    between atoms: _94  and  _97
REMARK   39  A    between atoms: _97  and  _98
REMARK   40  A    between atoms: _100  and  _102
REMARK   41  A    between atoms: _102  and  _103
REMARK   42  A    between atoms: _102  and  _105
REMARK   43  A    between atoms: _105  and  _106
REMARK   44  A    between atoms: _109  and  _111
REMARK   45  A    between atoms: _111  and  _112
REMARK   46  A    between atoms: _111  and  _114
REMARK   47  A    between atoms: _114  and  _115
REMARK   48  A    between atoms: _118  and  _120
REMARK   49  A    between atoms: _120  and  _121
REMARK   50  A    between atoms: _120  and  _123
REMARK   51  A    between atoms: _126  and  _128
REMARK   52  A    between atoms: _128  and  _129
REMARK   53  A    between atoms: _128  and  _131
REMARK   54  A    between atoms: _131  and  _132
REMARK   55  A    between atoms: _135  and  _137
REMARK   56  A    between atoms: _137  and  _138
REMARK   57  A    between atoms: _137  and  _140
REMARK   58  A    between atoms: _140  and  _141
REMARK   59  A    between atoms: _141  and  _142
REMARK   60  A    between atoms: _142  and  _143
REMARK   61  A    between atoms: _152  and  _154
REMARK   62  A    between atoms: _154  and  _155
REMARK   63  A    between atoms: _154  and  _157
REMARK   64  A    between atoms: _157  and  _158
REMARK   65  A    between atoms: _158  and  _159
REMARK   66  A    between atoms: _159  and  _160
REMARK   67  A    between atoms: _169  and  _171
REMARK   68  A    between atoms: _171  and  _172
REMARK   69  A    between atoms: _171  and  _174
REMARK   70  A    between atoms: _174  and  _175
REMARK   71  A    between atoms: _180  and  _182
REMARK   72  A    between atoms: _182  and  _183
REMARK   73  A    between atoms: _182  and  _185
REMARK   74  A    between atoms: _185  and  _186
REMARK   75  A    between atoms: _191  and  _193
REMARK   76  A    between atoms: _193  and  _194
REMARK   77  A    between atoms: _193  and  _196
REMARK   78  A    between atoms: _196  and  _197
REMARK   79  A    between atoms: _200  and  _202
REMARK   80  A    between atoms: _202  and  _203
REMARK   81  A    between atoms: _202  and  _205
REMARK   82  A    between atoms: _208  and  _210
REMARK   83  A    between atoms: _210  and  _211
REMARK   84  A    between atoms: _210  and  _213
REMARK   85  A    between atoms: _213  and  _214
REMARK   86  A    between atoms: _217  and  _219
REMARK   87  A    between atoms: _219  and  _220
REMARK   88  A    between atoms: _219  and  _222
REMARK   89  A    between atoms: _222  and  _223
REMARK   90  A    between atoms: _229  and  _231
REMARK   91  A    between atoms: _231  and  _232
REMARK   92  A    between atoms: _231  and  _234
REMARK   93  A    between atoms: _234  and  _235
REMARK   94  A    between atoms: _240  and  _241
REMARK   95  A    between atoms: _243  and  _245
REMARK   96  A    between atoms: _245  and  _246
REMARK   97  A    between atoms: _245  and  _248
REMARK   98  A    between atoms: _248  and  _249
REMARK   99  A    between atoms: _249  and  _250
REMARK  100  A    between atoms: _252  and  _254
REMARK  101  A    between atoms: _254  and  _255
REMARK  102  A    between atoms: _254  and  _257
REMARK  103  A    between atoms: _257  and  _258
REMARK  104  A    between atoms: _260  and  _262
REMARK  105  A    between atoms: _262  and  _263
REMARK  106  A    between atoms: _262  and  _265
REMARK  107  A    between atoms: _265  and  _266
REMARK  108  A    between atoms: _266  and  _267
REMARK  109  A    between atoms: _267  and  _268
REMARK  110  A    between atoms: _277  and  _279
REMARK  111  A    between atoms: _279  and  _280
REMARK  112  A    between atoms: _279  and  _282
REMARK  113  A    between atoms: _282  and  _283
REMARK  114  A    between atoms: _286  and  _288
REMARK  115  A    between atoms: _288  and  _289
REMARK  116  A    between atoms: _288  and  _291
REMARK  117  A    between atoms: _291  and  _292
REMARK  118  A    between atoms: _294  and  _296
REMARK  119  A    between atoms: _296  and  _297
REMARK  120  A    between atoms: _296  and  _299
REMARK  121  A    between atoms: _299  and  _300
REMARK  122  A    between atoms: _303  and  _305
REMARK  123  A    between atoms: _305  and  _306
REMARK  124  A    between atoms: _305  and  _308
REMARK  125  A    between atoms: _308  and  _309
REMARK  126  A    between atoms: _309  and  _310
REMARK  127  A    between atoms: _310  and  _311
REMARK  128  A    between atoms: _320  and  _322
REMARK  129  A    between atoms: _322  and  _323
REMARK  130  A    between atoms: _322  and  _325
REMARK  131  A    between atoms: _325  and  _326
REMARK  132  A    between atoms: _326  and  _327
REMARK  133  A    between atoms: _329  and  _331
REMARK  134  A    between atoms: _331  and  _332
REMARK  135  A    between atoms: _331  and  _334
REMARK  136  A    between atoms: _334  and  _335
REMARK  137  A    between atoms: _338  and  _340
REMARK  138  A    between atoms: _340  and  _341
REMARK  139  A    between atoms: _340  and  _343
REMARK  140  A    between atoms: _343  and  _344
REMARK                            x       y       z     vdW  Elec       q    Type
REMARK                         _______ _______ _______ _____ _____    ______ ____
ROOT
ATOM      1  O   HOH     1      -1.275  32.294 -14.476  0.00  0.00    +0.000 OA
ENDROOT
TORSDOF 0
REMARK  Name = ../refined-set-2016/2q8h/2q8h_pocket.pdb
REMARK  140 active torsions:
REMARK  status: ('A' for Active; 'I' for Inactive)
REMARK    1  A    between atoms: _1  and  _3
REMARK    2  A    between atoms: _3  and  _4
REMARK    3  A    between atoms: _3  and  _6
REMARK    4  A    between atoms: _6  and  _7
REMARK    5  A    between atoms: _10  and  _12
REMARK    6  A    between atoms: _12  and  _13
REMARK    7  A    between atoms: _12  and  _15
REMARK    8  A    between atoms: _15  and  _16
REMARK    9  A    between atoms: _16  and  _17
REMARK   10  A    between atoms: _17  and  _18
REMARK   11  A    between atoms: _27  and  _29
REMARK   12  A    between atoms: _29  and  _30
REMARK   13  A    between atoms: _29  and  _32
REMARK   14  A    between atoms: _32  and  _33
REMARK   15  A    between atoms: _36  and  _38
REMARK   16  A    between atoms: _38  and  _39
REMARK   17  A    between atoms: _38  and  _41
REMARK   18  A    between atoms: _41  and  _42
REMARK   19  A    between atoms: _45  and  _47
REMARK   20  A    between atoms: _47  and  _48
REMARK   21  A    between atoms: _47  and  _50
REMARK   22  A    between atoms: _50  and  _51
REMARK   23  A    between atoms: _51  and  _52
REMARK   24  A    between atoms: _54  and  _56
REMARK   25  A    between atoms: _56  and  _57
REMARK   26  A    between atoms: _56  and  _59
REMARK   27  A    between atoms: _62  and  _64
REMARK   28  A    between atoms: _64  and  _65
REMARK   29  A    between atoms: _64  and  _67
REMARK   30  A    between atoms: _67  and  _68
REMARK   31  A    between atoms: _78  and  _80
REMARK   32  A    between atoms: _80  and  _81
REMARK   33  A    between atoms: _80  and  _83
REMARK   34  A    between atoms: _83  and  _84
REMARK   35  A    between atoms: _89  and  _90
REMARK   36  A    between atoms: _92  and  _94
REMARK   37  A    between atoms: _94  and  _95
REMARK   38  A    between atoms: _94  and  _97
REMARK   39  A    between atoms: _97  and  _98
REMARK   40  A    between atoms: _100  and  _102
REMARK   41  A    between atoms: _102  and  _103
REMARK   42  A    between atoms: _102  and  _105
REMARK   43  A    between atoms: _105  and  _106
REMARK   44  A    between atoms: _109  and  _111
REMARK   45  A    between atoms: _111  and  _112
REMARK   46  A    between atoms: _111  and  _114
REMARK   47  A    between atoms: _114  and  _115
REMARK   48  A    between atoms: _118  and  _120
REMARK   49  A    between atoms: _120  and  _121
REMARK   50  A    between atoms: _120  and  _123
REMARK   51  A    between atoms: _126  and  _128
REMARK   52  A    between atoms: _128  and  _129
REMARK   53  A    between atoms: _128  and  _131
REMARK   54  A    between atoms: _131  and  _132
REMARK   55  A    between atoms: _135  and  _137
REMARK   56  A    between atoms: _137  and  _138
REMARK   57  A    between atoms: _137  and  _140
REMARK   58  A    between atoms: _140  and  _141
REMARK   59  A    between atoms: _141  and  _142
REMARK   60  A    between atoms: _142  and  _143
REMARK   61  A    between atoms: _152  and  _154
REMARK   62  A    between atoms: _154  and  _155
REMARK   63  A    between atoms: _154  and  _157
REMARK   64  A    between atoms: _157  and  _158
REMARK   65  A    between atoms: _158  and  _159
REMARK   66  A    between atoms: _159  and  _160
REMARK   67  A    between atoms: _169  and  _171
REMARK   68  A    between atoms: _171  and  _172
REMARK   69  A    between atoms: _171  and  _174
REMARK   70  A    between atoms: _174  and  _175
REMARK   71  A    between atoms: _180  and  _182
REMARK   72  A    between atoms: _182  and  _183
REMARK   73  A    between atoms: _182  and  _185
REMARK   74  A    between atoms: _185  and  _186
REMARK   75  A    between atoms: _191  and  _193
REMARK   76  A    between atoms: _193  and  _194
REMARK   77  A    between atoms: _193  and  _196
REMARK   78  A    between atoms: _196  and  _197
REMARK   79  A    between atoms: _200  and  _202
REMARK   80  A    between atoms: _202  and  _203
REMARK   81  A    between atoms: _202  and  _205
REMARK   82  A    between atoms: _208  and  _210
REMARK   83  A    between atoms: _210  and  _211
REMARK   84  A    between atoms: _210  and  _213
REMARK   85  A    between atoms: _213  and  _214
REMARK   86  A    between atoms: _217  and  _219
REMARK   87  A    between atoms: _219  and  _220
REMARK   88  A    between atoms: _219  and  _222
REMARK   89  A    between atoms: _222  and  _223
REMARK   90  A    between atoms: _229  and  _231
REMARK   91  A    between atoms: _231  and  _232
REMARK   92  A    between atoms: _231  and  _234
REMARK   93  A    between atoms: _234  and  _235
REMARK   94  A    between atoms: _240  and  _241
REMARK   95  A    between atoms: _243  and  _245
REMARK   96  A    between atoms: _245  and  _246
REMARK   97  A    between atoms: _245  and  _248
REMARK   98  A    between atoms: _248  and  _249
REMARK   99  A    between atoms: _249  and  _250
REMARK  100  A    between atoms: _252  and  _254
REMARK  101  A    between atoms: _254  and  _255
REMARK  102  A    between atoms: _254  and  _257
REMARK  103  A    between atoms: _257  and  _258
REMARK  104  A    between atoms: _260  and  _262
REMARK  105  A    between atoms: _262  and  _263
REMARK  106  A    between atoms: _262  and  _265
REMARK  107  A    between atoms: _265  and  _266
REMARK  108  A    between atoms: _266  and  _267
REMARK  109  A    between atoms: _267  and  _268
REMARK  110  A    between atoms: _277  and  _279
REMARK  111  A    between atoms: _279  and  _280
REMARK  112  A    between atoms: _279  and  _282
REMARK  113  A    between atoms: _282  and  _283
REMARK  114  A    between atoms: _286  and  _288
REMARK  115  A    between atoms: _288  and  _289
REMARK  116  A    between atoms: _288  and  _291
REMARK  117  A    between atoms: _291  and  _292
REMARK  118  A    between atoms: _294  and  _296
REMARK  119  A    between atoms: _296  and  _297
REMARK  120  A    between atoms: _296  and  _299
REMARK  121  A    between atoms: _299  and  _300
REMARK  122  A    between atoms: _303  and  _305
REMARK  123  A    between atoms: _305  and  _306
REMARK  124  A    between atoms: _305  and  _308
REMARK  125  A    between atoms: _308  and  _309
REMARK  126  A    between atoms: _309  and  _310
REMARK  127  A    between atoms: _310  and  _311
REMARK  128  A    between atoms: _320  and  _322
REMARK  129  A    between atoms: _322  and  _323
REMARK  130  A    between atoms: _322  and  _325
REMARK  131  A    between atoms: _325  and  _326
REMARK  132  A    between atoms: _326  and  _327
REMARK  133  A    between atoms: _329  and  _331
REMARK  134  A    between atoms: _331  and  _332
REMARK  135  A    between atoms: _331  and  _334
REMARK  136  A    between atoms: _334  and  _335
REMARK  137  A    between atoms: _338  and  _340
REMARK  138  A    between atoms: _340  and  _341
REMARK  139  A    between atoms: _340  and  _343
REMARK  140  A    between atoms: _343  and  _344
REMARK                            x       y       z     vdW  Elec       q    Type
REMARK                         _______ _______ _______ _____ _____    ______ ____
ROOT
ATOM      1  O   HOH     1      -5.948  32.829  -8.569  0.00  0.00    +0.000 OA
ENDROOT
TORSDOF 0
REMARK  Name = ../refined-set-2016/2q8h/2q8h_pocket.pdb
REMARK  140 active torsions:
REMARK  status: ('A' for Active; 'I' for Inactive)
REMARK    1  A    between atoms: _1  and  _3
REMARK    2  A    between atoms: _3  and  _4
REMARK    3  A    between atoms: _3  and  _6
REMARK    4  A    between atoms: _6  and  _7
REMARK    5  A    between atoms: _10  and  _12
REMARK    6  A    between atoms: _12  and  _13
REMARK    7  A    between atoms: _12  and  _15
REMARK    8  A    between atoms: _15  and  _16
REMARK    9  A    between atoms: _16  and  _17
REMARK   10  A    between atoms: _17  and  _18
REMARK   11  A    between atoms: _27  and  _29
REMARK   12  A    between atoms: _29  and  _30
REMARK   13  A    between atoms: _29  and  _32
REMARK   14  A    between atoms: _32  and  _33
REMARK   15  A    between atoms: _36  and  _38
REMARK   16  A    between atoms: _38  and  _39
REMARK   17  A    between atoms: _38  and  _41
REMARK   18  A    between atoms: _41  and  _42
REMARK   19  A    between atoms: _45  and  _47
REMARK   20  A    between atoms: _47  and  _48
REMARK   21  A    between atoms: _47  and  _50
REMARK   22  A    between atoms: _50  and  _51
REMARK   23  A    between atoms: _51  and  _52
REMARK   24  A    between atoms: _54  and  _56
REMARK   25  A    between atoms: _56  and  _57
REMARK   26  A    between atoms: _56  and  _59
REMARK   27  A    between atoms: _62  and  _64
REMARK   28  A    between atoms: _64  and  _65
REMARK   29  A    between atoms: _64  and  _67
REMARK   30  A    between atoms: _67  and  _68
REMARK   31  A    between atoms: _78  and  _80
REMARK   32  A    between atoms: _80  and  _81
REMARK   33  A    between atoms: _80  and  _83
REMARK   34  A    between atoms: _83  and  _84
REMARK   35  A    between atoms: _89  and  _90
REMARK   36  A    between atoms: _92  and  _94
REMARK   37  A    between atoms: _94  and  _95
REMARK   38  A    between atoms: _94  and  _97
REMARK   39  A    between atoms: _97  and  _98
REMARK   40  A    between atoms: _100  and  _102
REMARK   41  A    between atoms: _102  and  _103
REMARK   42  A    between atoms: _102  and  _105
REMARK   43  A    between atoms: _105  and  _106
REMARK   44  A    between atoms: _109  and  _111
REMARK   45  A    between atoms: _111  and  _112
REMARK   46  A    between atoms: _111  and  _114
REMARK   47  A    between atoms: _114  and  _115
REMARK   48  A    between atoms: _118  and  _120
REMARK   49  A    between atoms: _120  and  _121
REMARK   50  A    between atoms: _120  and  _123
REMARK   51  A    between atoms: _126  and  _128
REMARK   52  A    between atoms: _128  and  _129
REMARK   53  A    between atoms: _128  and  _131
REMARK   54  A    between atoms: _131  and  _132
REMARK   55  A    between atoms: _135  and  _137
REMARK   56  A    between atoms: _137  and  _138
REMARK   57  A    between atoms: _137  and  _140
REMARK   58  A    between atoms: _140  and  _141
REMARK   59  A    between atoms: _141  and  _142
REMARK   60  A    between atoms: _142  and  _143
REMARK   61  A    between atoms: _152  and  _154
REMARK   62  A    between atoms: _154  and  _155
REMARK   63  A    between atoms: _154  and  _157
REMARK   64  A    between atoms: _157  and  _158
REMARK   65  A    between atoms: _158  and  _159
REMARK   66  A    between atoms: _159  and  _160
REMARK   67  A    between atoms: _169  and  _171
REMARK   68  A    between atoms: _171  and  _172
REMARK   69  A    between atoms: _171  and  _174
REMARK   70  A    between atoms: _174  and  _175
REMARK   71  A    between atoms: _180  and  _182
REMARK   72  A    between atoms: _182  and  _183
REMARK   73  A    between atoms: _182  and  _185
REMARK   74  A    between atoms: _185  and  _186
REMARK   75  A    between atoms: _191  and  _193
REMARK   76  A    between atoms: _193  and  _194
REMARK   77  A    between atoms: _193  and  _196
REMARK   78  A    between atoms: _196  and  _197
REMARK   79  A    between atoms: _200  and  _202
REMARK   80  A    between atoms: _202  and  _203
REMARK   81  A    between atoms: _202  and  _205
REMARK   82  A    between atoms: _208  and  _210
REMARK   83  A    between atoms: _210  and  _211
REMARK   84  A    between atoms: _210  and  _213
REMARK   85  A    between atoms: _213  and  _214
REMARK   86  A    between atoms: _217  and  _219
REMARK   87  A    between atoms: _219  and  _220
REMARK   88  A    between atoms: _219  and  _222
REMARK   89  A    between atoms: _222  and  _223
REMARK   90  A    between atoms: _229  and  _231
REMARK   91  A    between atoms: _231  and  _232
REMARK   92  A    between atoms: _231  and  _234
REMARK   93  A    between atoms: _234  and  _235
REMARK   94  A    between atoms: _240  and  _241
REMARK   95  A    between atoms: _243  and  _245
REMARK   96  A    between atoms: _245  and  _246
REMARK   97  A    between atoms: _245  and  _248
REMARK   98  A    between atoms: _248  and  _249
REMARK   99  A    between atoms: _249  and  _250
REMARK  100  A    between atoms: _252  and  _254
REMARK  101  A    between atoms: _254  and  _255
REMARK  102  A    between atoms: _254  and  _257
REMARK  103  A    between atoms: _257  and  _258
REMARK  104  A    between atoms: _260  and  _262
REMARK  105  A    between atoms: _262  and  _263
REMARK  106  A    between atoms: _262  and  _265
REMARK  107  A    between atoms: _265  and  _266
REMARK  108  A    between atoms: _266  and  _267
REMARK  109  A    between atoms: _267  and  _268
REMARK  110  A    between atoms: _277  and  _279
REMARK  111  A    between atoms: _279  and  _280
REMARK  112  A    between atoms: _279  and  _282
REMARK  113  A    between atoms: _282  and  _283
REMARK  114  A    between atoms: _286  and  _288
REMARK  115  A    between atoms: _288  and  _289
REMARK  116  A    between atoms: _288  and  _291
REMARK  117  A    between atoms: _291  and  _292
REMARK  118  A    between atoms: _294  and  _296
REMARK  119  A    between atoms: _296  and  _297
REMARK  120  A    between atoms: _296  and  _299
REMARK  121  A    between atoms: _299  and  _300
REMARK  122  A    between atoms: _303  and  _305
REMARK  123  A    between atoms: _305  and  _306
REMARK  124  A    between atoms: _305  and  _308
REMARK  125  A    between atoms: _308  and  _309
REMARK  126  A    between atoms: _309  and  _310
REMARK  127  A    between atoms: _310  and  _311
REMARK  128  A    between atoms: _320  and  _322
REMARK  129  A    between atoms: _322  and  _323
REMARK  130  A    between atoms: _322  and  _325
REMARK  131  A    between atoms: _325  and  _326
REMARK  132  A    between atoms: _326  and  _327
REMARK  133  A    between atoms: _329  and  _331
REMARK  134  A    between atoms: _331  and  _332
REMARK  135  A    between atoms: _331  and  _334
REMARK  136  A    between atoms: _334  and  _335
REMARK  137  A    between atoms: _338  and  _340
REMARK  138  A    between atoms: _340  and  _341
REMARK  139  A    between atoms: _340  and  _343
REMARK  140  A    between atoms: _343  and  _344
REMARK                            x       y       z     vdW  Elec       q    Type
REMARK                         _______ _______ _______ _____ _____    ______ ____
ROOT
ATOM      1  O   HOH     1      -0.509  45.002 -16.342  0.00  0.00    +0.000 OA
ENDROOT
TORSDOF 0
REMARK  Name = ../refined-set-2016/2q8h/2q8h_pocket.pdb
REMARK  140 active torsions:
REMARK  status: ('A' for Active; 'I' for Inactive)
REMARK    1  A    between atoms: _1  and  _3
REMARK    2  A    between atoms: _3  and  _4
REMARK    3  A    between atoms: _3  and  _6
REMARK    4  A    between atoms: _6  and  _7
REMARK    5  A    between atoms: _10  and  _12
REMARK    6  A    between atoms: _12  and  _13
REMARK    7  A    between atoms: _12  and  _15
REMARK    8  A    between atoms: _15  and  _16
REMARK    9  A    between atoms: _16  and  _17
REMARK   10  A    between atoms: _17  and  _18
REMARK   11  A    between atoms: _27  and  _29
REMARK   12  A    between atoms: _29  and  _30
REMARK   13  A    between atoms: _29  and  _32
REMARK   14  A    between atoms: _32  and  _33
REMARK   15  A    between atoms: _36  and  _38
REMARK   16  A    between atoms: _38  and  _39
REMARK   17  A    between atoms: _38  and  _41
REMARK   18  A    between atoms: _41  and  _42
REMARK   19  A    between atoms: _45  and  _47
REMARK   20  A    between atoms: _47  and  _48
REMARK   21  A    between atoms: _47  and  _50
REMARK   22  A    between atoms: _50  and  _51
REMARK   23  A    between atoms: _51  and  _52
REMARK   24  A    between atoms: _54  and  _56
REMARK   25  A    between atoms: _56  and  _57
REMARK   26  A    between atoms: _56  and  _59
REMARK   27  A    between atoms: _62  and  _64
REMARK   28  A    between atoms: _64  and  _65
REMARK   29  A    between atoms: _64  and  _67
REMARK   30  A    between atoms: _67  and  _68
REMARK   31  A    between atoms: _78  and  _80
REMARK   32  A    between atoms: _80  and  _81
REMARK   33  A    between atoms: _80  and  _83
REMARK   34  A    between atoms: _83  and  _84
REMARK   35  A    between atoms: _89  and  _90
REMARK   36  A    between atoms: _92  and  _94
REMARK   37  A    between atoms: _94  and  _95
REMARK   38  A    between atoms: _94  and  _97
REMARK   39  A    between atoms: _97  and  _98
REMARK   40  A    between atoms: _100  and  _102
REMARK   41  A    between atoms: _102  and  _103
REMARK   42  A    between atoms: _102  and  _105
REMARK   43  A    between atoms: _105  and  _106
REMARK   44  A    between atoms: _109  and  _111
REMARK   45  A    between atoms: _111  and  _112
REMARK   46  A    between atoms: _111  and  _114
REMARK   47  A    between atoms: _114  and  _115
REMARK   48  A    between atoms: _118  and  _120
REMARK   49  A    between atoms: _120  and  _121
REMARK   50  A    between atoms: _120  and  _123
REMARK   51  A    between atoms: _126  and  _128
REMARK   52  A    between atoms: _128  and  _129
REMARK   53  A    between atoms: _128  and  _131
REMARK   54  A    between atoms: _131  and  _132
REMARK   55  A    between atoms: _135  and  _137
REMARK   56  A    between atoms: _137  and  _138
REMARK   57  A    between atoms: _137  and  _140
REMARK   58  A    between atoms: _140  and  _141
REMARK   59  A    between atoms: _141  and  _142
REMARK   60  A    between atoms: _142  and  _143
REMARK   61  A    between atoms: _152  and  _154
REMARK   62  A    between atoms: _154  and  _155
REMARK   63  A    between atoms: _154  and  _157
REMARK   64  A    between atoms: _157  and  _158
REMARK   65  A    between atoms: _158  and  _159
REMARK   66  A    between atoms: _159  and  _160
REMARK   67  A    between atoms: _169  and  _171
REMARK   68  A    between atoms: _171  and  _172
REMARK   69  A    between atoms: _171  and  _174
REMARK   70  A    between atoms: _174  and  _175
REMARK   71  A    between atoms: _180  and  _182
REMARK   72  A    between atoms: _182  and  _183
REMARK   73  A    between atoms: _182  and  _185
REMARK   74  A    between atoms: _185  and  _186
REMARK   75  A    between atoms: _191  and  _193
REMARK   76  A    between atoms: _193  and  _194
REMARK   77  A    between atoms: _193  and  _196
REMARK   78  A    between atoms: _196  and  _197
REMARK   79  A    between atoms: _200  and  _202
REMARK   80  A    between atoms: _202  and  _203
REMARK   81  A    between atoms: _202  and  _205
REMARK   82  A    between atoms: _208  and  _210
REMARK   83  A    between atoms: _210  and  _211
REMARK   84  A    between atoms: _210  and  _213
REMARK   85  A    between atoms: _213  and  _214
REMARK   86  A    between atoms: _217  and  _219
REMARK   87  A    between atoms: _219  and  _220
REMARK   88  A    between atoms: _219  and  _222
REMARK   89  A    between atoms: _222  and  _223
REMARK   90  A    between atoms: _229  and  _231
REMARK   91  A    between atoms: _231  and  _232
REMARK   92  A    between atoms: _231  and  _234
REMARK   93  A    between atoms: _234  and  _235
REMARK   94  A    between atoms: _240  and  _241
REMARK   95  A    between atoms: _243  and  _245
REMARK   96  A    between atoms: _245  and  _246
REMARK   97  A    between atoms: _245  and  _248
REMARK   98  A    between atoms: _248  and  _249
REMARK   99  A    between atoms: _249  and  _250
REMARK  100  A    between atoms: _252  and  _254
REMARK  101  A    between atoms: _254  and  _255
REMARK  102  A    between atoms: _254  and  _257
REMARK  103  A    between atoms: _257  and  _258
REMARK  104  A    between atoms: _260  and  _262
REMARK  105  A    between atoms: _262  and  _263
REMARK  106  A    between atoms: _262  and  _265
REMARK  107  A    between atoms: _265  and  _266
REMARK  108  A    between atoms: _266  and  _267
REMARK  109  A    between atoms: _267  and  _268
REMARK  110  A    between atoms: _277  and  _279
REMARK  111  A    between atoms: _279  and  _280
REMARK  112  A    between atoms: _279  and  _282
REMARK  113  A    between atoms: _282  and  _283
REMARK  114  A    between atoms: _286  and  _288
REMARK  115  A    between atoms: _288  and  _289
REMARK  116  A    between atoms: _288  and  _291
REMARK  117  A    between atoms: _291  and  _292
REMARK  118  A    between atoms: _294  and  _296
REMARK  119  A    between atoms: _296  and  _297
REMARK  120  A    between atoms: _296  and  _299
REMARK  121  A    between atoms: _299  and  _300
REMARK  122  A    between atoms: _303  and  _305
REMARK  123  A    between atoms: _305  and  _306
REMARK  124  A    between atoms: _305  and  _308
REMARK  125  A    between atoms: _308  and  _309
REMARK  126  A    between atoms: _309  and  _310
REMARK  127  A    between atoms: _310  and  _311
REMARK  128  A    between atoms: _320  and  _322
REMARK  129  A    between atoms: _322  and  _323
REMARK  130  A    between atoms: _322  and  _325
REMARK  131  A    between atoms: _325  and  _326
REMARK  132  A    between atoms: _326  and  _327
REMARK  133  A    between atoms: _329  and  _331
REMARK  134  A    between atoms: _331  and  _332
REMARK  135  A    between atoms: _331  and  _334
REMARK  136  A    between atoms: _334  and  _335
REMARK  137  A    between atoms: _338  and  _340
REMARK  138  A    between atoms: _340  and  _341
REMARK  139  A    between atoms: _340  and  _343
REMARK  140  A    between atoms: _343  and  _344
REMARK                            x       y       z     vdW  Elec       q    Type
REMARK                         _______ _______ _______ _____ _____    ______ ____
ROOT
ATOM      1  O   HOH     1      -3.475  34.049 -11.828  0.00  0.00    +0.000 OA
ENDROOT
TORSDOF 0
REMARK  Name = ../refined-set-2016/2q8h/2q8h_pocket.pdb
REMARK  140 active torsions:
REMARK  status: ('A' for Active; 'I' for Inactive)
REMARK    1  A    between atoms: _1  and  _3
REMARK    2  A    between atoms: _3  and  _4
REMARK    3  A    between atoms: _3  and  _6
REMARK    4  A    between atoms: _6  and  _7
REMARK    5  A    between atoms: _10  and  _12
REMARK    6  A    between atoms: _12  and  _13
REMARK    7  A    between atoms: _12  and  _15
REMARK    8  A    between atoms: _15  and  _16
REMARK    9  A    between atoms: _16  and  _17
REMARK   10  A    between atoms: _17  and  _18
REMARK   11  A    between atoms: _27  and  _29
REMARK   12  A    between atoms: _29  and  _30
REMARK   13  A    between atoms: _29  and  _32
REMARK   14  A    between atoms: _32  and  _33
REMARK   15  A    between atoms: _36  and  _38
REMARK   16  A    between atoms: _38  and  _39
REMARK   17  A    between atoms: _38  and  _41
REMARK   18  A    between atoms: _41  and  _42
REMARK   19  A    between atoms: _45  and  _47
REMARK   20  A    between atoms: _47  and  _48
REMARK   21  A    between atoms: _47  and  _50
REMARK   22  A    between atoms: _50  and  _51
REMARK   23  A    between atoms: _51  and  _52
REMARK   24  A    between atoms: _54  and  _56
REMARK   25  A    between atoms: _56  and  _57
REMARK   26  A    between atoms: _56  and  _59
REMARK   27  A    between atoms: _62  and  _64
REMARK   28  A    between atoms: _64  and  _65
REMARK   29  A    between atoms: _64  and  _67
REMARK   30  A    between atoms: _67  and  _68
REMARK   31  A    between atoms: _78  and  _80
REMARK   32  A    between atoms: _80  and  _81
REMARK   33  A    between atoms: _80  and  _83
REMARK   34  A    between atoms: _83  and  _84
REMARK   35  A    between atoms: _89  and  _90
REMARK   36  A    between atoms: _92  and  _94
REMARK   37  A    between atoms: _94  and  _95
REMARK   38  A    between atoms: _94  and  _97
REMARK   39  A    between atoms: _97  and  _98
REMARK   40  A    between atoms: _100  and  _102
REMARK   41  A    between atoms: _102  and  _103
REMARK   42  A    between atoms: _102  and  _105
REMARK   43  A    between atoms: _105  and  _106
REMARK   44  A    between atoms: _109  and  _111
REMARK   45  A    between atoms: _111  and  _112
REMARK   46  A    between atoms: _111  and  _114
REMARK   47  A    between atoms: _114  and  _115
REMARK   48  A    between atoms: _118  and  _120
REMARK   49  A    between atoms: _120  and  _121
REMARK   50  A    between atoms: _120  and  _123
REMARK   51  A    between atoms: _126  and  _128
REMARK   52  A    between atoms: _128  and  _129
REMARK   53  A    between atoms: _128  and  _131
REMARK   54  A    between atoms: _131  and  _132
REMARK   55  A    between atoms: _135  and  _137
REMARK   56  A    between atoms: _137  and  _138
REMARK   57  A    between atoms: _137  and  _140
REMARK   58  A    between atoms: _140  and  _141
REMARK   59  A    between atoms: _141  and  _142
REMARK   60  A    between atoms: _142  and  _143
REMARK   61  A    between atoms: _152  and  _154
REMARK   62  A    between atoms: _154  and  _155
REMARK   63  A    between atoms: _154  and  _157
REMARK   64  A    between atoms: _157  and  _158
REMARK   65  A    between atoms: _158  and  _159
REMARK   66  A    between atoms: _159  and  _160
REMARK   67  A    between atoms: _169  and  _171
REMARK   68  A    between atoms: _171  and  _172
REMARK   69  A    between atoms: _171  and  _174
REMARK   70  A    between atoms: _174  and  _175
REMARK   71  A    between atoms: _180  and  _182
REMARK   72  A    between atoms: _182  and  _183
REMARK   73  A    between atoms: _182  and  _185
REMARK   74  A    between atoms: _185  and  _186
REMARK   75  A    between atoms: _191  and  _193
REMARK   76  A    between atoms: _193  and  _194
REMARK   77  A    between atoms: _193  and  _196
REMARK   78  A    between atoms: _196  and  _197
REMARK   79  A    between atoms: _200  and  _202
REMARK   80  A    between atoms: _202  and  _203
REMARK   81  A    between atoms: _202  and  _205
REMARK   82  A    between atoms: _208  and  _210
REMARK   83  A    between atoms: _210  and  _211
REMARK   84  A    between atoms: _210  and  _213
REMARK   85  A    between atoms: _213  and  _214
REMARK   86  A    between atoms: _217  and  _219
REMARK   87  A    between atoms: _219  and  _220
REMARK   88  A    between atoms: _219  and  _222
REMARK   89  A    between atoms: _222  and  _223
REMARK   90  A    between atoms: _229  and  _231
REMARK   91  A    between atoms: _231  and  _232
REMARK   92  A    between atoms: _231  and  _234
REMARK   93  A    between atoms: _234  and  _235
REMARK   94  A    between atoms: _240  and  _241
REMARK   95  A    between atoms: _243  and  _245
REMARK   96  A    between atoms: _245  and  _246
REMARK   97  A    between atoms: _245  and  _248
REMARK   98  A    between atoms: _248  and  _249
REMARK   99  A    between atoms: _249  and  _250
REMARK  100  A    between atoms: _252  and  _254
REMARK  101  A    between atoms: _254  and  _255
REMARK  102  A    between atoms: _254  and  _257
REMARK  103  A    between atoms: _257  and  _258
REMARK  104  A    between atoms: _260  and  _262
REMARK  105  A    between atoms: _262  and  _263
REMARK  106  A    between atoms: _262  and  _265
REMARK  107  A    between atoms: _265  and  _266
REMARK  108  A    between atoms: _266  and  _267
REMARK  109  A    between atoms: _267  and  _268
REMARK  110  A    between atoms: _277  and  _279
REMARK  111  A    between atoms: _279  and  _280
REMARK  112  A    between atoms: _279  and  _282
REMARK  113  A    between atoms: _282  and  _283
REMARK  114  A    between atoms: _286  and  _288
REMARK  115  A    between atoms: _288  and  _289
REMARK  116  A    between atoms: _288  and  _291
REMARK  117  A    between atoms: _291  and  _292
REMARK  118  A    between atoms: _294  and  _296
REMARK  119  A    between atoms: _296  and  _297
REMARK  120  A    between atoms: _296  and  _299
REMARK  121  A    between atoms: _299  and  _300
REMARK  122  A    between atoms: _303  and  _305
REMARK  123  A    between atoms: _305  and  _306
REMARK  124  A    between atoms: _305  and  _308
REMARK  125  A    between atoms: _308  and  _309
REMARK  126  A    between atoms: _309  and  _310
REMARK  127  A    between atoms: _310  and  _311
REMARK  128  A    between atoms: _320  and  _322
REMARK  129  A    between atoms: _322  and  _323
REMARK  130  A    between atoms: _322  and  _325
REMARK  131  A    between atoms: _325  and  _326
REMARK  132  A    between atoms: _326  and  _327
REMARK  133  A    between atoms: _329  and  _331
REMARK  134  A    between atoms: _331  and  _332
REMARK  135  A    between atoms: _331  and  _334
REMARK  136  A    between atoms: _334  and  _335
REMARK  137  A    between atoms: _338  and  _340
REMARK  138  A    between atoms: _340  and  _341
REMARK  139  A    between atoms: _340  and  _343
REMARK  140  A    between atoms: _343  and  _344
REMARK                            x       y       z     vdW  Elec       q    Type
REMARK                         _______ _______ _______ _____ _____    ______ ____
ROOT
ATOM      1  O   HOH     1      -2.018  31.034  -7.464  0.00  0.00    +0.000 OA
ENDROOT
TORSDOF 0
