REMARK  Name = ../refined-set-2016/2am4/2am4_pocket.pdb
REMARK  251 active torsions:
REMARK  status: ('A' for Active; 'I' for Inactive)
REMARK    1  A    between atoms: _1  and  _3
REMARK    2  A    between atoms: _3  and  _4
REMARK    3  A    between atoms: _3  and  _6
REMARK    4  A    between atoms: _6  and  _7
REMARK    5  A    between atoms: _10  and  _12
REMARK    6  A    between atoms: _12  and  _13
REMARK    7  A    between atoms: _12  and  _15
REMARK    8  A    between atoms: _18  and  _20
REMARK    9  A    between atoms: _20  and  _21
REMARK   10  A    between atoms: _20  and  _23
REMARK   11  A    between atoms: _23  and  _24
REMARK   12  A    between atoms: _27  and  _29
REMARK   13  A    between atoms: _29  and  _30
REMARK   14  A    between atoms: _33  and  _35
REMARK   15  A    between atoms: _35  and  _36
REMARK   16  A    between atoms: _35  and  _38
REMARK   17  A    between atoms: _38  and  _39
REMARK   18  A    between atoms: _39  and  _109
REMARK   19  A    between atoms: _40  and  _42
REMARK   20  A    between atoms: _42  and  _43
REMARK   21  A    between atoms: _42  and  _45
REMARK   22  A    between atoms: _45  and  _46
REMARK   23  A    between atoms: _49  and  _51
REMARK   24  A    between atoms: _51  and  _52
REMARK   25  A    between atoms: _51  and  _54
REMARK   26  A    between atoms: _54  and  _55
REMARK   27  A    between atoms: _55  and  _56
REMARK   28  A    between atoms: _56  and  _57
REMARK   29  A    between atoms: _66  and  _68
REMARK   30  A    between atoms: _68  and  _69
REMARK   31  A    between atoms: _68  and  _71
REMARK   32  A    between atoms: _74  and  _76
REMARK   33  A    between atoms: _76  and  _77
REMARK   34  A    between atoms: _76  and  _79
REMARK   35  A    between atoms: _79  and  _80
REMARK   36  A    between atoms: _82  and  _84
REMARK   37  A    between atoms: _84  and  _85
REMARK   38  A    between atoms: _84  and  _87
REMARK   39  A    between atoms: _87  and  _88
REMARK   40  A    between atoms: _88  and  _89
REMARK   41  A    between atoms: _94  and  _96
REMARK   42  A    between atoms: _96  and  _97
REMARK   43  A    between atoms: _96  and  _99
REMARK   44  A    between atoms: _99  and  _100
REMARK   45  A    between atoms: _103  and  _105
REMARK   46  A    between atoms: _105  and  _106
REMARK   47  A    between atoms: _105  and  _108
REMARK   48  A    between atoms: _108  and  _109
REMARK   49  A    between atoms: _110  and  _112
REMARK   50  A    between atoms: _112  and  _113
REMARK   51  A    between atoms: _115  and  _117
REMARK   52  A    between atoms: _117  and  _118
REMARK   53  A    between atoms: _117  and  _120
REMARK   54  A    between atoms: _120  and  _121
REMARK   55  A    between atoms: _124  and  _126
REMARK   56  A    between atoms: _126  and  _127
REMARK   57  A    between atoms: _126  and  _129
REMARK   58  A    between atoms: _129  and  _130
REMARK   59  A    between atoms: _130  and  _131
REMARK   60  A    between atoms: _136  and  _138
REMARK   61  A    between atoms: _138  and  _139
REMARK   62  A    between atoms: _138  and  _141
REMARK   63  A    between atoms: _141  and  _142
REMARK   64  A    between atoms: _145  and  _147
REMARK   65  A    between atoms: _147  and  _148
REMARK   66  A    between atoms: _147  and  _150
REMARK   67  A    between atoms: _150  and  _151
REMARK   68  A    between atoms: _154  and  _156
REMARK   69  A    between atoms: _156  and  _157
REMARK   70  A    between atoms: _156  and  _159
REMARK   71  A    between atoms: _159  and  _160
REMARK   72  A    between atoms: _166  and  _168
REMARK   73  A    between atoms: _168  and  _169
REMARK   74  A    between atoms: _168  and  _171
REMARK   75  A    between atoms: _171  and  _172
REMARK   76  A    between atoms: _172  and  _173
REMARK   77  A    between atoms: _178  and  _180
REMARK   78  A    between atoms: _180  and  _181
REMARK   79  A    between atoms: _183  and  _185
REMARK   80  A    between atoms: _185  and  _186
REMARK   81  A    between atoms: _185  and  _188
REMARK   82  A    between atoms: _188  and  _189
REMARK   83  A    between atoms: _194  and  _195
REMARK   84  A    between atoms: _197  and  _199
REMARK   85  A    between atoms: _199  and  _200
REMARK   86  A    between atoms: _199  and  _202
REMARK   87  A    between atoms: _202  and  _203
REMARK   88  A    between atoms: _208  and  _209
REMARK   89  A    between atoms: _211  and  _213
REMARK   90  A    between atoms: _213  and  _214
REMARK   91  A    between atoms: _213  and  _216
REMARK   92  A    between atoms: _216  and  _217
REMARK   93  A    between atoms: _217  and  _218
REMARK   94  A    between atoms: _218  and  _219
REMARK   95  A    between atoms: _219  and  _220
REMARK   96  A    between atoms: _224  and  _226
REMARK   97  A    between atoms: _226  and  _227
REMARK   98  A    between atoms: _226  and  _229
REMARK   99  A    between atoms: _229  and  _230
REMARK  100  A    between atoms: _233  and  _235
REMARK  101  A    between atoms: _235  and  _236
REMARK  102  A    between atoms: _239  and  _241
REMARK  103  A    between atoms: _241  and  _242
REMARK  104  A    between atoms: _241  and  _244
REMARK  105  A    between atoms: _244  and  _245
REMARK  106  A    between atoms: _245  and  _246
REMARK  107  A    between atoms: _246  and  _247
REMARK  108  A    between atoms: _256  and  _258
REMARK  109  A    between atoms: _258  and  _259
REMARK  110  A    between atoms: _258  and  _261
REMARK  111  A    between atoms: _261  and  _262
REMARK  112  A    between atoms: _267  and  _269
REMARK  113  A    between atoms: _269  and  _270
REMARK  114  A    between atoms: _269  and  _272
REMARK  115  A    between atoms: _272  and  _273
REMARK  116  A    between atoms: _278  and  _279
REMARK  117  A    between atoms: _281  and  _283
REMARK  118  A    between atoms: _283  and  _284
REMARK  119  A    between atoms: _287  and  _289
REMARK  120  A    between atoms: _289  and  _290
REMARK  121  A    between atoms: _289  and  _292
REMARK  122  A    between atoms: _295  and  _297
REMARK  123  A    between atoms: _297  and  _298
REMARK  124  A    between atoms: _297  and  _300
REMARK  125  A    between atoms: _303  and  _305
REMARK  126  A    between atoms: _305  and  _306
REMARK  127  A    between atoms: _305  and  _308
REMARK  128  A    between atoms: _308  and  _309
REMARK  129  A    between atoms: _309  and  _310
REMARK  130  A    between atoms: _313  and  _315
REMARK  131  A    between atoms: _315  and  _316
REMARK  132  A    between atoms: _315  and  _318
REMARK  133  A    between atoms: _318  and  _319
REMARK  134  A    between atoms: _322  and  _324
REMARK  135  A    between atoms: _324  and  _325
REMARK  136  A    between atoms: _324  and  _327
REMARK  137  A    between atoms: _327  and  _328
REMARK  138  A    between atoms: _328  and  _330
REMARK  139  A    between atoms: _330  and  MN_635
REMARK  140  A    between atoms: _331  and  _333
REMARK  141  A    between atoms: _333  and  _334
REMARK  142  A    between atoms: _333  and  _336
REMARK  143  A    between atoms: _336  and  _337
REMARK  144  A    between atoms: _340  and  _342
REMARK  145  A    between atoms: _342  and  _343
REMARK  146  A    between atoms: _342  and  _345
REMARK  147  A    between atoms: _345  and  _346
REMARK  148  A    between atoms: _353  and  _354
REMARK  149  A    between atoms: _359  and  _361
REMARK  150  A    between atoms: _361  and  _362
REMARK  151  A    between atoms: _364  and  _366
REMARK  152  A    between atoms: _366  and  _367
REMARK  153  A    between atoms: _366  and  _369
REMARK  154  A    between atoms: _369  and  _370
REMARK  155  A    between atoms: _373  and  _375
REMARK  156  A    between atoms: _375  and  _376
REMARK  157  A    between atoms: _378  and  _380
REMARK  158  A    between atoms: _380  and  _381
REMARK  159  A    between atoms: _380  and  _383
REMARK  160  A    between atoms: _383  and  _384
REMARK  161  A    between atoms: _394  and  _396
REMARK  162  A    between atoms: _396  and  _397
REMARK  163  A    between atoms: _400  and  _402
REMARK  164  A    between atoms: _402  and  _403
REMARK  165  A    between atoms: _402  and  _405
REMARK  166  A    between atoms: _405  and  _406
REMARK  167  A    between atoms: _412  and  _414
REMARK  168  A    between atoms: _414  and  _415
REMARK  169  A    between atoms: _414  and  _417
REMARK  170  A    between atoms: _417  and  _418
REMARK  171  A    between atoms: _428  and  _430
REMARK  172  A    between atoms: _430  and  _431
REMARK  173  A    between atoms: _430  and  _433
REMARK  174  A    between atoms: _433  and  _434
REMARK  175  A    between atoms: _437  and  _439
REMARK  176  A    between atoms: _439  and  _440
REMARK  177  A    between atoms: _439  and  _442
REMARK  178  A    between atoms: _442  and  _443
REMARK  179  A    between atoms: _446  and  _448
REMARK  180  A    between atoms: _448  and  _449
REMARK  181  A    between atoms: _448  and  _451
REMARK  182  A    between atoms: _451  and  _452
REMARK  183  A    between atoms: _462  and  _464
REMARK  184  A    between atoms: _464  and  _465
REMARK  185  A    between atoms: _464  and  _467
REMARK  186  A    between atoms: _467  and  _468
REMARK  187  A    between atoms: _468  and  _469
REMARK  188  A    between atoms: _469  and  _470
REMARK  189  A    between atoms: _479  and  _481
REMARK  190  A    between atoms: _481  and  _482
REMARK  191  A    between atoms: _481  and  _484
REMARK  192  A    between atoms: _484  and  _485
REMARK  193  A    between atoms: _488  and  _490
REMARK  194  A    between atoms: _490  and  _491
REMARK  195  A    between atoms: _490  and  _493
REMARK  196  A    between atoms: _493  and  _494
REMARK  197  A    between atoms: _500  and  _502
REMARK  198  A    between atoms: _502  and  _503
REMARK  199  A    between atoms: _505  and  _507
REMARK  200  A    between atoms: _507  and  _508
REMARK  201  A    between atoms: _507  and  _510
REMARK  202  A    between atoms: _510  and  _511
REMARK  203  A    between atoms: _511  and  _512
REMARK  204  A    between atoms: _512  and  _513
REMARK  205  A    between atoms: _522  and  _524
REMARK  206  A    between atoms: _524  and  _525
REMARK  207  A    between atoms: _524  and  _527
REMARK  208  A    between atoms: _527  and  _528
REMARK  209  A    between atoms: _528  and  _529
REMARK  210  A    between atoms: _529  and  _530
REMARK  211  A    between atoms: _530  and  _531
REMARK  212  A    between atoms: _535  and  _537
REMARK  213  A    between atoms: _537  and  _538
REMARK  214  A    between atoms: _540  and  _542
REMARK  215  A    between atoms: _542  and  _543
REMARK  216  A    between atoms: _542  and  _545
REMARK  217  A    between atoms: _548  and  _550
REMARK  218  A    between atoms: _550  and  _551
REMARK  219  A    between atoms: _550  and  _553
REMARK  220  A    between atoms: _553  and  _554
REMARK  221  A    between atoms: _556  and  _558
REMARK  222  A    between atoms: _558  and  _559
REMARK  223  A    between atoms: _558  and  _561
REMARK  224  A    between atoms: _561  and  _562
REMARK  225  A    between atoms: _567  and  _569
REMARK  226  A    between atoms: _569  and  _570
REMARK  227  A    between atoms: _572  and  _574
REMARK  228  A    between atoms: _574  and  _575
REMARK  229  A    between atoms: _574  and  _577
REMARK  230  A    between atoms: _577  and  _578
REMARK  231  A    between atoms: _584  and  _586
REMARK  232  A    between atoms: _586  and  _587
REMARK  233  A    between atoms: _586  and  _589
REMARK  234  A    between atoms: _589  and  _590
REMARK  235  A    between atoms: _596  and  _598
REMARK  236  A    between atoms: _598  and  _599
REMARK  237  A    between atoms: _598  and  _601
REMARK  238  A    between atoms: _601  and  _602
REMARK  239  A    between atoms: _605  and  _607
REMARK  240  A    between atoms: _607  and  _608
REMARK  241  A    between atoms: _607  and  _610
REMARK  242  A    between atoms: _610  and  _611
REMARK  243  A    between atoms: _611  and  _612
REMARK  244  A    between atoms: _612  and  _613
REMARK  245  A    between atoms: _613  and  _614
REMARK  246  A    between atoms: _618  and  _620
REMARK  247  A    between atoms: _620  and  _621
REMARK  248  A    between atoms: _620  and  _623
REMARK  249  A    between atoms: _623  and  _624
REMARK  250  A    between atoms: _624  and  _625
REMARK  251  A    between atoms: _625  and  _626
REMARK                            x       y       z     vdW  Elec       q    Type
REMARK                         _______ _______ _______ _____ _____    ______ ____
ROOT
ATOM      1  CA  GLY A   5      -0.474  17.133   2.258  0.00  0.00    +0.160 C 
ENDROOT
BRANCH   1   2
ATOM      2  C   GLY A   5       0.497  17.072   1.073  0.00  0.00    +0.242 C 
ATOM      3  N   ASP A   6       1.783  17.327   1.307  0.00  0.00    -0.297 N 
ATOM      4  H   ASP A   6       2.108  17.530   2.274  0.00  0.00    +0.150 HD
ATOM      5  O   GLY A   5       0.079  16.783  -0.052  0.00  0.00    -0.273 OA
BRANCH   3   6
ATOM      6  CA  ASP A   6       2.734  17.320   0.202  0.00  0.00    +0.160 C 
BRANCH   6   7
ATOM      7  C   ASP A   6       4.023  16.528   0.375  0.00  0.00    +0.241 C 
ATOM      8  N   ARG A   7       3.991  15.510   1.228  0.00  0.00    -0.298 N 
ATOM      9  H   ARG A   7       3.124  15.310   1.766  0.00  0.00    +0.150 HD
ATOM     10  O   ASP A   6       5.042  16.848  -0.243  0.00  0.00    -0.273 OA
BRANCH   8  11
ATOM     11  CA  ARG A   7       5.170  14.673   1.411  0.00  0.00    +0.137 C 
BRANCH  11  12
ATOM     12  C   ARG A   7       4.853  13.289   0.843  0.00  0.00    +0.227 C 
ATOM     13  O   ARG A   7       3.883  12.638   1.258  0.00  0.00    -0.286 OA
ENDBRANCH  11  12
BRANCH  11  14
ATOM     14  CB  ARG A   7       5.553  14.575   2.893  0.00  0.00    +0.031 C 
BRANCH  14  15
ATOM     15  CG  ARG A   7       6.029  15.895   3.482  0.00  0.00    +0.045 C 
BRANCH  15  16
ATOM     16  CD  ARG A   7       6.456  15.785   4.949  0.00  0.00    +0.174 C 
BRANCH  16  17
ATOM     17  NE  ARG A   7       5.319  15.514   5.834  0.00  0.00    -0.265 N 
ATOM     18  CZ  ARG A   7       5.291  15.799   7.134  0.00  0.00    +0.342 C 
ATOM     19  NH2 ARG A   7       4.200  15.523   7.844  0.00  0.00    -0.292 N 
ATOM     20 HH21 ARG A   7       4.171  15.743   8.860  0.00  0.00    +0.255 HD
ATOM     21 HH22 ARG A   7       3.376  15.087   7.383  0.00  0.00    +0.255 HD
ATOM     22  NH1 ARG A   7       6.346  16.370   7.727  0.00  0.00    -0.292 N 
ATOM     23 HH11 ARG A   7       6.316  16.589   8.743  0.00  0.00    +0.255 HD
ATOM     24 HH12 ARG A   7       7.196  16.594   7.172  0.00  0.00    +0.255 HD
ATOM     25  HE  ARG A   7       4.477  15.069   5.418  0.00  0.00    +0.259 HD
ENDBRANCH  16  17
ENDBRANCH  15  16
ENDBRANCH  14  15
ENDBRANCH  11  14
ENDBRANCH   8  11
ENDBRANCH   6   7
BRANCH   6  26
ATOM     26  CB  ASP A   6       3.071  18.768  -0.189  0.00  0.00    +0.143 C 
BRANCH  26  27
ATOM     27  CG  ASP A   6       3.580  19.597   0.975  0.00  0.00    +0.367 C 
ATOM     28  OD2 ASP A   6       3.818  19.037   2.066  0.00  0.00    -0.246 OA
ATOM     29  OD1 ASP A   6       3.746  20.829   0.791  0.00  0.00    -0.246 OA
ENDBRANCH  26  27
ENDBRANCH   6  26
ENDBRANCH   3   6
ENDBRANCH   1   2
BRANCH   1  32
ATOM     30  C   CYS A   4      -1.649  15.494   3.631  0.00  0.00    +0.241 C 
ATOM     31  O   CYS A   4      -2.683  16.157   3.652  0.00  0.00    -0.273 OA
ATOM     32  N   GLY A   5      -0.543  15.872   2.991  0.00  0.00    -0.296 N 
ATOM     33  H   GLY A   5       0.292  15.253   3.014  0.00  0.00    +0.150 HD
BRANCH  30  34
ATOM     34  CA  CYS A   4      -1.575  14.156   4.342  0.00  0.00    +0.149 C 
ATOM     35  CB  CYS A   4      -1.572  13.031   3.305  0.00  0.00    +0.031 C 
BRANCH  34  38
ATOM     36  C   ASP A   3      -2.508  13.622   6.543  0.00  0.00    +0.241 C 
ATOM     37  O   ASP A   3      -1.398  13.440   7.036  0.00  0.00    -0.273 OA
ATOM     38  N   CYS A   4      -2.692  13.975   5.269  0.00  0.00    -0.297 N 
ATOM     39  H   CYS A   4      -3.661  14.126   4.924  0.00  0.00    +0.150 HD
BRANCH  36  40
ATOM     40  CA  ASP A   3      -3.767  13.435   7.388  0.00  0.00    +0.149 C 
BRANCH  40  42
ATOM     41  C   GLN A   2      -4.492  11.094   7.265  0.00  0.00    +0.241 C 
ATOM     42  N   ASP A   3      -3.790  12.053   7.868  0.00  0.00    -0.297 N 
ATOM     43  H   ASP A   3      -3.236  11.809   8.714  0.00  0.00    +0.150 HD
ATOM     44  O   GLN A   2      -5.179  11.284   6.266  0.00  0.00    -0.273 OA
BRANCH  41  45
ATOM     45  CA  GLN A   2      -4.414   9.701   7.899  0.00  0.00    +0.148 C 
BRANCH  45  48
ATOM     46  C   SER A   1      -6.343   9.426   9.357  0.00  0.00    +0.238 C 
ATOM     47  O   SER A   1      -5.762   9.959  10.299  0.00  0.00    -0.274 OA
ATOM     48  N   GLN A   2      -5.775   9.246   8.166  0.00  0.00    -0.297 N 
ATOM     49  H   GLN A   2      -6.311   8.772   7.412  0.00  0.00    +0.150 HD
BRANCH  46  50
ATOM     50  CA  SER A   1      -7.772   8.923   9.527  0.00  0.00    +0.145 C 
BRANCH  50  51
ATOM     51  N   SER A   1      -7.740   7.744  10.387  0.00  0.00    -0.238 NA
ATOM     52  H   SER A   1      -7.648   7.865  11.416  0.00  0.00    +0.142 HD
ENDBRANCH  50  51
BRANCH  50  53
ATOM     53  CB  SER A   1      -8.630  10.020  10.177  0.00  0.00    +0.026 C 
BRANCH  53  54
ATOM     54  CG  SER A   1      -8.545  11.406   9.531  0.00  0.00    +0.002 C 
ATOM     55  CD2 SER A   1      -9.340  12.411  10.379  0.00  0.00    +0.000 C 
ATOM     56  CD1 SER A   1      -9.100  11.343   8.110  0.00  0.00    +0.000 C 
ENDBRANCH  53  54
ENDBRANCH  50  53
ENDBRANCH  46  50
ENDBRANCH  45  48
BRANCH  45  57
ATOM     57  CB  GLN A   2      -3.679   8.735   6.938  0.00  0.00    +0.027 C 
ATOM     58  CG2 GLN A   2      -3.572   7.348   7.577  0.00  0.00    +0.002 C 
ATOM     59  CG1 GLN A   2      -2.276   9.255   6.635  0.00  0.00    +0.002 C 
ENDBRANCH  45  57
ENDBRANCH  41  45
ENDBRANCH  40  42
BRANCH  40  60
ATOM     60  CB  ASP A   3      -3.743  14.420   8.590  0.00  0.00    +0.027 C 
ATOM     61  CG2 ASP A   3      -3.780  15.881   8.091  0.00  0.00    +0.002 C 
BRANCH  60  62
ATOM     62  CG1 ASP A   3      -4.928  14.129   9.518  0.00  0.00    +0.002 C 
ATOM     63  CD1 ASP A   3      -6.288  14.302   8.871  0.00  0.00    +0.000 C 
ENDBRANCH  60  62
ENDBRANCH  40  60
ENDBRANCH  36  40
ENDBRANCH  34  38
ENDBRANCH  30  34
ENDBRANCH   1  32
BRANCH   1  64
ATOM     64  CB  GLY A   5      -0.115  18.263   3.230  0.00  0.00    +0.098 C 
BRANCH  64  65
ATOM     65  SG  GLY A   5       0.455  19.867   2.561  0.00  0.00    -0.080 S 
BRANCH  65  66
ATOM     66  SG  CYS A   4      -1.177  20.842   1.853  0.00  0.00    -0.080 S 
BRANCH  66  67
ATOM     67  CB  CYS A   4      -1.204  20.510   0.046  0.00  0.00    +0.098 C 
BRANCH  67  68
ATOM     68  CA  CYS A   4      -2.541  20.982  -0.547  0.00  0.00    +0.160 C 
BRANCH  68  69
ATOM     69  C   CYS A   4      -2.596  20.715  -2.053  0.00  0.00    +0.242 C 
ATOM     70  N   GLY A   5      -3.068  19.550  -2.478  0.00  0.00    -0.296 N 
ATOM     71  H   GLY A   5      -3.383  18.836  -1.791  0.00  0.00    +0.150 HD
ATOM     72  O   CYS A   4      -2.193  21.573  -2.832  0.00  0.00    -0.273 OA
BRANCH  70  73
ATOM     73  CA  GLY A   5      -3.145  19.270  -3.907  0.00  0.00    +0.163 C 
BRANCH  73  74
ATOM     74  C   GLY A   5      -1.840  18.867  -4.594  0.00  0.00    +0.229 C 
ATOM     75  O   GLY A   5      -1.739  18.922  -5.818  0.00  0.00    -0.286 OA
ENDBRANCH  73  74
ENDBRANCH  70  73
ENDBRANCH  68  69
BRANCH  68  76
ATOM     76  N   CYS A   4      -3.594  20.495   0.341  0.00  0.00    -0.296 N 
ATOM     77  H   CYS A   4      -4.280  21.170   0.736  0.00  0.00    +0.150 HD
ATOM     78  C   ASP A   3      -3.693  19.209   0.654  0.00  0.00    +0.241 C 
ATOM     79  O   ASP A   3      -3.021  18.332   0.092  0.00  0.00    -0.273 OA
BRANCH  78  80
ATOM     80  CA  ASP A   3      -4.752  18.836   1.700  0.00  0.00    +0.160 C 
BRANCH  80  81
ATOM     81  N   ASP A   3      -4.613  17.390   1.876  0.00  0.00    -0.297 N 
ATOM     82  H   ASP A   3      -3.821  17.030   2.446  0.00  0.00    +0.150 HD
ATOM     83  C   GLN A   2      -5.457  16.520   1.337  0.00  0.00    +0.241 C 
ATOM     84  O   GLN A   2      -6.433  16.851   0.674  0.00  0.00    -0.273 OA
BRANCH  83  85
ATOM     85  CA  GLN A   2      -5.134  15.050   1.579  0.00  0.00    +0.149 C 
BRANCH  85  86
ATOM     86  N   GLN A   2      -6.275  14.286   2.072  0.00  0.00    -0.297 N 
ATOM     87  C   SER A   1      -6.288  13.808   3.308  0.00  0.00    +0.241 C 
ATOM     88  O   SER A   1      -5.365  13.990   4.111  0.00  0.00    -0.274 OA
ATOM     89  H   GLN A   2      -7.088  14.114   1.446  0.00  0.00    +0.150 HD
BRANCH  87  90
ATOM     90  CA  SER A   1      -7.516  12.999   3.707  0.00  0.00    +0.174 C 
BRANCH  90  91
ATOM     91  N   SER A   1      -7.042  11.669   4.086  0.00  0.00    -0.236 NA
ATOM     92  H   SER A   1      -6.666  11.518   5.044  0.00  0.00    +0.142 HD
ENDBRANCH  90  91
BRANCH  90  93
ATOM     93  CB  SER A   1      -8.223  13.670   4.881  0.00  0.00    +0.163 C 
BRANCH  93  94
ATOM     94  OG  SER A   1      -8.839  14.886   4.465  0.00  0.00    -0.380 OA
ATOM     95  H   SER A   1      -8.148  15.501   4.112  0.00  0.00    +0.211 HD
ENDBRANCH  93  94
ENDBRANCH  90  93
ENDBRANCH  87  90
ENDBRANCH  85  86
BRANCH  85  96
ATOM     96  CB  GLN A   2      -4.594  14.439   0.273  0.00  0.00    +0.039 C 
BRANCH  96  97
ATOM     97  CG  GLN A   2      -3.279  15.093  -0.186  0.00  0.00    +0.087 C 
BRANCH  97  98
ATOM     98  CD  GLN A   2      -2.875  14.776  -1.622  0.00  0.00    +0.219 C 
ATOM     99  NE2 GLN A   2      -1.752  15.352  -2.053  0.00  0.00    -0.329 N 
ATOM    100 HE21 GLN A   2      -1.207  15.969  -1.417  0.00  0.00    +0.145 HD
ATOM    101 HE22 GLN A   2      -1.421  15.184  -3.025  0.00  0.00    +0.145 HD
ATOM    102  OE1 GLN A   2      -3.555  14.038  -2.336  0.00  0.00    -0.275 OA
ENDBRANCH  97  98
ENDBRANCH  96  97
ENDBRANCH  85  96
ENDBRANCH  83  85
ENDBRANCH  80  81
BRANCH  80 103
ATOM    103  CB  ASP A   3      -4.448  19.518   3.049  0.00  0.00    +0.143 C 
BRANCH 103 104
ATOM    104  CG  ASP A   3      -4.753  21.008   3.059  0.00  0.00    +0.367 C 
ATOM    105  OD2 ASP A   3      -4.269  21.695   3.991  0.00  0.00    -0.246 OA
ATOM    106  OD1 ASP A   3      -5.478  21.485   2.162  0.00  0.00    -0.246 OA
ENDBRANCH 103 104
ENDBRANCH  80 103
ENDBRANCH  78  80
ENDBRANCH  68  76
ENDBRANCH  67  68
ENDBRANCH  66  67
ENDBRANCH  65  66
ENDBRANCH  64  65
ENDBRANCH   1  64
TORSDOF 47
REMARK  Name = ../refined-set-2016/2am4/2am4_pocket.pdb
REMARK  251 active torsions:
REMARK  status: ('A' for Active; 'I' for Inactive)
REMARK    1  A    between atoms: _1  and  _3
REMARK    2  A    between atoms: _3  and  _4
REMARK    3  A    between atoms: _3  and  _6
REMARK    4  A    between atoms: _6  and  _7
REMARK    5  A    between atoms: _10  and  _12
REMARK    6  A    between atoms: _12  and  _13
REMARK    7  A    between atoms: _12  and  _15
REMARK    8  A    between atoms: _18  and  _20
REMARK    9  A    between atoms: _20  and  _21
REMARK   10  A    between atoms: _20  and  _23
REMARK   11  A    between atoms: _23  and  _24
REMARK   12  A    between atoms: _27  and  _29
REMARK   13  A    between atoms: _29  and  _30
REMARK   14  A    between atoms: _33  and  _35
REMARK   15  A    between atoms: _35  and  _36
REMARK   16  A    between atoms: _35  and  _38
REMARK   17  A    between atoms: _38  and  _39
REMARK   18  A    between atoms: _39  and  _109
REMARK   19  A    between atoms: _40  and  _42
REMARK   20  A    between atoms: _42  and  _43
REMARK   21  A    between atoms: _42  and  _45
REMARK   22  A    between atoms: _45  and  _46
REMARK   23  A    between atoms: _49  and  _51
REMARK   24  A    between atoms: _51  and  _52
REMARK   25  A    between atoms: _51  and  _54
REMARK   26  A    between atoms: _54  and  _55
REMARK   27  A    between atoms: _55  and  _56
REMARK   28  A    between atoms: _56  and  _57
REMARK   29  A    between atoms: _66  and  _68
REMARK   30  A    between atoms: _68  and  _69
REMARK   31  A    between atoms: _68  and  _71
REMARK   32  A    between atoms: _74  and  _76
REMARK   33  A    between atoms: _76  and  _77
REMARK   34  A    between atoms: _76  and  _79
REMARK   35  A    between atoms: _79  and  _80
REMARK   36  A    between atoms: _82  and  _84
REMARK   37  A    between atoms: _84  and  _85
REMARK   38  A    between atoms: _84  and  _87
REMARK   39  A    between atoms: _87  and  _88
REMARK   40  A    between atoms: _88  and  _89
REMARK   41  A    between atoms: _94  and  _96
REMARK   42  A    between atoms: _96  and  _97
REMARK   43  A    between atoms: _96  and  _99
REMARK   44  A    between atoms: _99  and  _100
REMARK   45  A    between atoms: _103  and  _105
REMARK   46  A    between atoms: _105  and  _106
REMARK   47  A    between atoms: _105  and  _108
REMARK   48  A    between atoms: _108  and  _109
REMARK   49  A    between atoms: _110  and  _112
REMARK   50  A    between atoms: _112  and  _113
REMARK   51  A    between atoms: _115  and  _117
REMARK   52  A    between atoms: _117  and  _118
REMARK   53  A    between atoms: _117  and  _120
REMARK   54  A    between atoms: _120  and  _121
REMARK   55  A    between atoms: _124  and  _126
REMARK   56  A    between atoms: _126  and  _127
REMARK   57  A    between atoms: _126  and  _129
REMARK   58  A    between atoms: _129  and  _130
REMARK   59  A    between atoms: _130  and  _131
REMARK   60  A    between atoms: _136  and  _138
REMARK   61  A    between atoms: _138  and  _139
REMARK   62  A    between atoms: _138  and  _141
REMARK   63  A    between atoms: _141  and  _142
REMARK   64  A    between atoms: _145  and  _147
REMARK   65  A    between atoms: _147  and  _148
REMARK   66  A    between atoms: _147  and  _150
REMARK   67  A    between atoms: _150  and  _151
REMARK   68  A    between atoms: _154  and  _156
REMARK   69  A    between atoms: _156  and  _157
REMARK   70  A    between atoms: _156  and  _159
REMARK   71  A    between atoms: _159  and  _160
REMARK   72  A    between atoms: _166  and  _168
REMARK   73  A    between atoms: _168  and  _169
REMARK   74  A    between atoms: _168  and  _171
REMARK   75  A    between atoms: _171  and  _172
REMARK   76  A    between atoms: _172  and  _173
REMARK   77  A    between atoms: _178  and  _180
REMARK   78  A    between atoms: _180  and  _181
REMARK   79  A    between atoms: _183  and  _185
REMARK   80  A    between atoms: _185  and  _186
REMARK   81  A    between atoms: _185  and  _188
REMARK   82  A    between atoms: _188  and  _189
REMARK   83  A    between atoms: _194  and  _195
REMARK   84  A    between atoms: _197  and  _199
REMARK   85  A    between atoms: _199  and  _200
REMARK   86  A    between atoms: _199  and  _202
REMARK   87  A    between atoms: _202  and  _203
REMARK   88  A    between atoms: _208  and  _209
REMARK   89  A    between atoms: _211  and  _213
REMARK   90  A    between atoms: _213  and  _214
REMARK   91  A    between atoms: _213  and  _216
REMARK   92  A    between atoms: _216  and  _217
REMARK   93  A    between atoms: _217  and  _218
REMARK   94  A    between atoms: _218  and  _219
REMARK   95  A    between atoms: _219  and  _220
REMARK   96  A    between atoms: _224  and  _226
REMARK   97  A    between atoms: _226  and  _227
REMARK   98  A    between atoms: _226  and  _229
REMARK   99  A    between atoms: _229  and  _230
REMARK  100  A    between atoms: _233  and  _235
REMARK  101  A    between atoms: _235  and  _236
REMARK  102  A    between atoms: _239  and  _241
REMARK  103  A    between atoms: _241  and  _242
REMARK  104  A    between atoms: _241  and  _244
REMARK  105  A    between atoms: _244  and  _245
REMARK  106  A    between atoms: _245  and  _246
REMARK  107  A    between atoms: _246  and  _247
REMARK  108  A    between atoms: _256  and  _258
REMARK  109  A    between atoms: _258  and  _259
REMARK  110  A    between atoms: _258  and  _261
REMARK  111  A    between atoms: _261  and  _262
REMARK  112  A    between atoms: _267  and  _269
REMARK  113  A    between atoms: _269  and  _270
REMARK  114  A    between atoms: _269  and  _272
REMARK  115  A    between atoms: _272  and  _273
REMARK  116  A    between atoms: _278  and  _279
REMARK  117  A    between atoms: _281  and  _283
REMARK  118  A    between atoms: _283  and  _284
REMARK  119  A    between atoms: _287  and  _289
REMARK  120  A    between atoms: _289  and  _290
REMARK  121  A    between atoms: _289  and  _292
REMARK  122  A    between atoms: _295  and  _297
REMARK  123  A    between atoms: _297  and  _298
REMARK  124  A    between atoms: _297  and  _300
REMARK  125  A    between atoms: _303  and  _305
REMARK  126  A    between atoms: _305  and  _306
REMARK  127  A    between atoms: _305  and  _308
REMARK  128  A    between atoms: _308  and  _309
REMARK  129  A    between atoms: _309  and  _310
REMARK  130  A    between atoms: _313  and  _315
REMARK  131  A    between atoms: _315  and  _316
REMARK  132  A    between atoms: _315  and  _318
REMARK  133  A    between atoms: _318  and  _319
REMARK  134  A    between atoms: _322  and  _324
REMARK  135  A    between atoms: _324  and  _325
REMARK  136  A    between atoms: _324  and  _327
REMARK  137  A    between atoms: _327  and  _328
REMARK  138  A    between atoms: _328  and  _330
REMARK  139  A    between atoms: _330  and  MN_635
REMARK  140  A    between atoms: _331  and  _333
REMARK  141  A    between atoms: _333  and  _334
REMARK  142  A    between atoms: _333  and  _336
REMARK  143  A    between atoms: _336  and  _337
REMARK  144  A    between atoms: _340  and  _342
REMARK  145  A    between atoms: _342  and  _343
REMARK  146  A    between atoms: _342  and  _345
REMARK  147  A    between atoms: _345  and  _346
REMARK  148  A    between atoms: _353  and  _354
REMARK  149  A    between atoms: _359  and  _361
REMARK  150  A    between atoms: _361  and  _362
REMARK  151  A    between atoms: _364  and  _366
REMARK  152  A    between atoms: _366  and  _367
REMARK  153  A    between atoms: _366  and  _369
REMARK  154  A    between atoms: _369  and  _370
REMARK  155  A    between atoms: _373  and  _375
REMARK  156  A    between atoms: _375  and  _376
REMARK  157  A    between atoms: _378  and  _380
REMARK  158  A    between atoms: _380  and  _381
REMARK  159  A    between atoms: _380  and  _383
REMARK  160  A    between atoms: _383  and  _384
REMARK  161  A    between atoms: _394  and  _396
REMARK  162  A    between atoms: _396  and  _397
REMARK  163  A    between atoms: _400  and  _402
REMARK  164  A    between atoms: _402  and  _403
REMARK  165  A    between atoms: _402  and  _405
REMARK  166  A    between atoms: _405  and  _406
REMARK  167  A    between atoms: _412  and  _414
REMARK  168  A    between atoms: _414  and  _415
REMARK  169  A    between atoms: _414  and  _417
REMARK  170  A    between atoms: _417  and  _418
REMARK  171  A    between atoms: _428  and  _430
REMARK  172  A    between atoms: _430  and  _431
REMARK  173  A    between atoms: _430  and  _433
REMARK  174  A    between atoms: _433  and  _434
REMARK  175  A    between atoms: _437  and  _439
REMARK  176  A    between atoms: _439  and  _440
REMARK  177  A    between atoms: _439  and  _442
REMARK  178  A    between atoms: _442  and  _443
REMARK  179  A    between atoms: _446  and  _448
REMARK  180  A    between atoms: _448  and  _449
REMARK  181  A    between atoms: _448  and  _451
REMARK  182  A    between atoms: _451  and  _452
REMARK  183  A    between atoms: _462  and  _464
REMARK  184  A    between atoms: _464  and  _465
REMARK  185  A    between atoms: _464  and  _467
REMARK  186  A    between atoms: _467  and  _468
REMARK  187  A    between atoms: _468  and  _469
REMARK  188  A    between atoms: _469  and  _470
REMARK  189  A    between atoms: _479  and  _481
REMARK  190  A    between atoms: _481  and  _482
REMARK  191  A    between atoms: _481  and  _484
REMARK  192  A    between atoms: _484  and  _485
REMARK  193  A    between atoms: _488  and  _490
REMARK  194  A    between atoms: _490  and  _491
REMARK  195  A    between atoms: _490  and  _493
REMARK  196  A    between atoms: _493  and  _494
REMARK  197  A    between atoms: _500  and  _502
REMARK  198  A    between atoms: _502  and  _503
REMARK  199  A    between atoms: _505  and  _507
REMARK  200  A    between atoms: _507  and  _508
REMARK  201  A    between atoms: _507  and  _510
REMARK  202  A    between atoms: _510  and  _511
REMARK  203  A    between atoms: _511  and  _512
REMARK  204  A    between atoms: _512  and  _513
REMARK  205  A    between atoms: _522  and  _524
REMARK  206  A    between atoms: _524  and  _525
REMARK  207  A    between atoms: _524  and  _527
REMARK  208  A    between atoms: _527  and  _528
REMARK  209  A    between atoms: _528  and  _529
REMARK  210  A    between atoms: _529  and  _530
REMARK  211  A    between atoms: _530  and  _531
REMARK  212  A    between atoms: _535  and  _537
REMARK  213  A    between atoms: _537  and  _538
REMARK  214  A    between atoms: _540  and  _542
REMARK  215  A    between atoms: _542  and  _543
REMARK  216  A    between atoms: _542  and  _545
REMARK  217  A    between atoms: _548  and  _550
REMARK  218  A    between atoms: _550  and  _551
REMARK  219  A    between atoms: _550  and  _553
REMARK  220  A    between atoms: _553  and  _554
REMARK  221  A    between atoms: _556  and  _558
REMARK  222  A    between atoms: _558  and  _559
REMARK  223  A    between atoms: _558  and  _561
REMARK  224  A    between atoms: _561  and  _562
REMARK  225  A    between atoms: _567  and  _569
REMARK  226  A    between atoms: _569  and  _570
REMARK  227  A    between atoms: _572  and  _574
REMARK  228  A    between atoms: _574  and  _575
REMARK  229  A    between atoms: _574  and  _577
REMARK  230  A    between atoms: _577  and  _578
REMARK  231  A    between atoms: _584  and  _586
REMARK  232  A    between atoms: _586  and  _587
REMARK  233  A    between atoms: _586  and  _589
REMARK  234  A    between atoms: _589  and  _590
REMARK  235  A    between atoms: _596  and  _598
REMARK  236  A    between atoms: _598  and  _599
REMARK  237  A    between atoms: _598  and  _601
REMARK  238  A    between atoms: _601  and  _602
REMARK  239  A    between atoms: _605  and  _607
REMARK  240  A    between atoms: _607  and  _608
REMARK  241  A    between atoms: _607  and  _610
REMARK  242  A    between atoms: _610  and  _611
REMARK  243  A    between atoms: _611  and  _612
REMARK  244  A    between atoms: _612  and  _613
REMARK  245  A    between atoms: _613  and  _614
REMARK  246  A    between atoms: _618  and  _620
REMARK  247  A    between atoms: _620  and  _621
REMARK  248  A    between atoms: _620  and  _623
REMARK  249  A    between atoms: _623  and  _624
REMARK  250  A    between atoms: _624  and  _625
REMARK  251  A    between atoms: _625  and  _626
REMARK                            x       y       z     vdW  Elec       q    Type
REMARK                         _______ _______ _______ _____ _____    ______ ____
ROOT
ATOM      1  CA  VAL A   1       3.093   9.193   3.300  0.00  0.00    +0.133 C 
ENDROOT
BRANCH   1   2
ATOM      2  CB  VAL A   1       1.826   9.891   2.710  0.00  0.00    +0.023 C 
ATOM      3  CG2 VAL A   1       0.558   9.393   3.426  0.00  0.00    +0.002 C 
ATOM      4  CG1 VAL A   1       1.720   9.633   1.214  0.00  0.00    +0.002 C 
ENDBRANCH   1   2
BRANCH   1   5
ATOM      5  N   VAL A   1       4.317   9.677   2.676  0.00  0.00    -0.239 NA
ATOM      6  H   VAL A   1       4.264  10.357   1.891  0.00  0.00    +0.142 HD
ENDBRANCH   1   5
BRANCH   1   7
ATOM      7  C   VAL A   1       3.108   7.691   2.971  0.00  0.00    +0.224 C 
ATOM      8  O   VAL A   1       2.433   6.880   3.621  0.00  0.00    -0.287 OA
ENDBRANCH   1   7
TORSDOF 3
REMARK  Name = ../refined-set-2016/2am4/2am4_pocket.pdb
REMARK  251 active torsions:
REMARK  status: ('A' for Active; 'I' for Inactive)
REMARK    1  A    between atoms: _1  and  _3
REMARK    2  A    between atoms: _3  and  _4
REMARK    3  A    between atoms: _3  and  _6
REMARK    4  A    between atoms: _6  and  _7
REMARK    5  A    between atoms: _10  and  _12
REMARK    6  A    between atoms: _12  and  _13
REMARK    7  A    between atoms: _12  and  _15
REMARK    8  A    between atoms: _18  and  _20
REMARK    9  A    between atoms: _20  and  _21
REMARK   10  A    between atoms: _20  and  _23
REMARK   11  A    between atoms: _23  and  _24
REMARK   12  A    between atoms: _27  and  _29
REMARK   13  A    between atoms: _29  and  _30
REMARK   14  A    between atoms: _33  and  _35
REMARK   15  A    between atoms: _35  and  _36
REMARK   16  A    between atoms: _35  and  _38
REMARK   17  A    between atoms: _38  and  _39
REMARK   18  A    between atoms: _39  and  _109
REMARK   19  A    between atoms: _40  and  _42
REMARK   20  A    between atoms: _42  and  _43
REMARK   21  A    between atoms: _42  and  _45
REMARK   22  A    between atoms: _45  and  _46
REMARK   23  A    between atoms: _49  and  _51
REMARK   24  A    between atoms: _51  and  _52
REMARK   25  A    between atoms: _51  and  _54
REMARK   26  A    between atoms: _54  and  _55
REMARK   27  A    between atoms: _55  and  _56
REMARK   28  A    between atoms: _56  and  _57
REMARK   29  A    between atoms: _66  and  _68
REMARK   30  A    between atoms: _68  and  _69
REMARK   31  A    between atoms: _68  and  _71
REMARK   32  A    between atoms: _74  and  _76
REMARK   33  A    between atoms: _76  and  _77
REMARK   34  A    between atoms: _76  and  _79
REMARK   35  A    between atoms: _79  and  _80
REMARK   36  A    between atoms: _82  and  _84
REMARK   37  A    between atoms: _84  and  _85
REMARK   38  A    between atoms: _84  and  _87
REMARK   39  A    between atoms: _87  and  _88
REMARK   40  A    between atoms: _88  and  _89
REMARK   41  A    between atoms: _94  and  _96
REMARK   42  A    between atoms: _96  and  _97
REMARK   43  A    between atoms: _96  and  _99
REMARK   44  A    between atoms: _99  and  _100
REMARK   45  A    between atoms: _103  and  _105
REMARK   46  A    between atoms: _105  and  _106
REMARK   47  A    between atoms: _105  and  _108
REMARK   48  A    between atoms: _108  and  _109
REMARK   49  A    between atoms: _110  and  _112
REMARK   50  A    between atoms: _112  and  _113
REMARK   51  A    between atoms: _115  and  _117
REMARK   52  A    between atoms: _117  and  _118
REMARK   53  A    between atoms: _117  and  _120
REMARK   54  A    between atoms: _120  and  _121
REMARK   55  A    between atoms: _124  and  _126
REMARK   56  A    between atoms: _126  and  _127
REMARK   57  A    between atoms: _126  and  _129
REMARK   58  A    between atoms: _129  and  _130
REMARK   59  A    between atoms: _130  and  _131
REMARK   60  A    between atoms: _136  and  _138
REMARK   61  A    between atoms: _138  and  _139
REMARK   62  A    between atoms: _138  and  _141
REMARK   63  A    between atoms: _141  and  _142
REMARK   64  A    between atoms: _145  and  _147
REMARK   65  A    between atoms: _147  and  _148
REMARK   66  A    between atoms: _147  and  _150
REMARK   67  A    between atoms: _150  and  _151
REMARK   68  A    between atoms: _154  and  _156
REMARK   69  A    between atoms: _156  and  _157
REMARK   70  A    between atoms: _156  and  _159
REMARK   71  A    between atoms: _159  and  _160
REMARK   72  A    between atoms: _166  and  _168
REMARK   73  A    between atoms: _168  and  _169
REMARK   74  A    between atoms: _168  and  _171
REMARK   75  A    between atoms: _171  and  _172
REMARK   76  A    between atoms: _172  and  _173
REMARK   77  A    between atoms: _178  and  _180
REMARK   78  A    between atoms: _180  and  _181
REMARK   79  A    between atoms: _183  and  _185
REMARK   80  A    between atoms: _185  and  _186
REMARK   81  A    between atoms: _185  and  _188
REMARK   82  A    between atoms: _188  and  _189
REMARK   83  A    between atoms: _194  and  _195
REMARK   84  A    between atoms: _197  and  _199
REMARK   85  A    between atoms: _199  and  _200
REMARK   86  A    between atoms: _199  and  _202
REMARK   87  A    between atoms: _202  and  _203
REMARK   88  A    between atoms: _208  and  _209
REMARK   89  A    between atoms: _211  and  _213
REMARK   90  A    between atoms: _213  and  _214
REMARK   91  A    between atoms: _213  and  _216
REMARK   92  A    between atoms: _216  and  _217
REMARK   93  A    between atoms: _217  and  _218
REMARK   94  A    between atoms: _218  and  _219
REMARK   95  A    between atoms: _219  and  _220
REMARK   96  A    between atoms: _224  and  _226
REMARK   97  A    between atoms: _226  and  _227
REMARK   98  A    between atoms: _226  and  _229
REMARK   99  A    between atoms: _229  and  _230
REMARK  100  A    between atoms: _233  and  _235
REMARK  101  A    between atoms: _235  and  _236
REMARK  102  A    between atoms: _239  and  _241
REMARK  103  A    between atoms: _241  and  _242
REMARK  104  A    between atoms: _241  and  _244
REMARK  105  A    between atoms: _244  and  _245
REMARK  106  A    between atoms: _245  and  _246
REMARK  107  A    between atoms: _246  and  _247
REMARK  108  A    between atoms: _256  and  _258
REMARK  109  A    between atoms: _258  and  _259
REMARK  110  A    between atoms: _258  and  _261
REMARK  111  A    between atoms: _261  and  _262
REMARK  112  A    between atoms: _267  and  _269
REMARK  113  A    between atoms: _269  and  _270
REMARK  114  A    between atoms: _269  and  _272
REMARK  115  A    between atoms: _272  and  _273
REMARK  116  A    between atoms: _278  and  _279
REMARK  117  A    between atoms: _281  and  _283
REMARK  118  A    between atoms: _283  and  _284
REMARK  119  A    between atoms: _287  and  _289
REMARK  120  A    between atoms: _289  and  _290
REMARK  121  A    between atoms: _289  and  _292
REMARK  122  A    between atoms: _295  and  _297
REMARK  123  A    between atoms: _297  and  _298
REMARK  124  A    between atoms: _297  and  _300
REMARK  125  A    between atoms: _303  and  _305
REMARK  126  A    between atoms: _305  and  _306
REMARK  127  A    between atoms: _305  and  _308
REMARK  128  A    between atoms: _308  and  _309
REMARK  129  A    between atoms: _309  and  _310
REMARK  130  A    between atoms: _313  and  _315
REMARK  131  A    between atoms: _315  and  _316
REMARK  132  A    between atoms: _315  and  _318
REMARK  133  A    between atoms: _318  and  _319
REMARK  134  A    between atoms: _322  and  _324
REMARK  135  A    between atoms: _324  and  _325
REMARK  136  A    between atoms: _324  and  _327
REMARK  137  A    between atoms: _327  and  _328
REMARK  138  A    between atoms: _328  and  _330
REMARK  139  A    between atoms: _330  and  MN_635
REMARK  140  A    between atoms: _331  and  _333
REMARK  141  A    between atoms: _333  and  _334
REMARK  142  A    between atoms: _333  and  _336
REMARK  143  A    between atoms: _336  and  _337
REMARK  144  A    between atoms: _340  and  _342
REMARK  145  A    between atoms: _342  and  _343
REMARK  146  A    between atoms: _342  and  _345
REMARK  147  A    between atoms: _345  and  _346
REMARK  148  A    between atoms: _353  and  _354
REMARK  149  A    between atoms: _359  and  _361
REMARK  150  A    between atoms: _361  and  _362
REMARK  151  A    between atoms: _364  and  _366
REMARK  152  A    between atoms: _366  and  _367
REMARK  153  A    between atoms: _366  and  _369
REMARK  154  A    between atoms: _369  and  _370
REMARK  155  A    between atoms: _373  and  _375
REMARK  156  A    between atoms: _375  and  _376
REMARK  157  A    between atoms: _378  and  _380
REMARK  158  A    between atoms: _380  and  _381
REMARK  159  A    between atoms: _380  and  _383
REMARK  160  A    between atoms: _383  and  _384
REMARK  161  A    between atoms: _394  and  _396
REMARK  162  A    between atoms: _396  and  _397
REMARK  163  A    between atoms: _400  and  _402
REMARK  164  A    between atoms: _402  and  _403
REMARK  165  A    between atoms: _402  and  _405
REMARK  166  A    between atoms: _405  and  _406
REMARK  167  A    between atoms: _412  and  _414
REMARK  168  A    between atoms: _414  and  _415
REMARK  169  A    between atoms: _414  and  _417
REMARK  170  A    between atoms: _417  and  _418
REMARK  171  A    between atoms: _428  and  _430
REMARK  172  A    between atoms: _430  and  _431
REMARK  173  A    between atoms: _430  and  _433
REMARK  174  A    between atoms: _433  and  _434
REMARK  175  A    between atoms: _437  and  _439
REMARK  176  A    between atoms: _439  and  _440
REMARK  177  A    between atoms: _439  and  _442
REMARK  178  A    between atoms: _442  and  _443
REMARK  179  A    between atoms: _446  and  _448
REMARK  180  A    between atoms: _448  and  _449
REMARK  181  A    between atoms: _448  and  _451
REMARK  182  A    between atoms: _451  and  _452
REMARK  183  A    between atoms: _462  and  _464
REMARK  184  A    between atoms: _464  and  _465
REMARK  185  A    between atoms: _464  and  _467
REMARK  186  A    between atoms: _467  and  _468
REMARK  187  A    between atoms: _468  and  _469
REMARK  188  A    between atoms: _469  and  _470
REMARK  189  A    between atoms: _479  and  _481
REMARK  190  A    between atoms: _481  and  _482
REMARK  191  A    between atoms: _481  and  _484
REMARK  192  A    between atoms: _484  and  _485
REMARK  193  A    between atoms: _488  and  _490
REMARK  194  A    between atoms: _490  and  _491
REMARK  195  A    between atoms: _490  and  _493
REMARK  196  A    between atoms: _493  and  _494
REMARK  197  A    between atoms: _500  and  _502
REMARK  198  A    between atoms: _502  and  _503
REMARK  199  A    between atoms: _505  and  _507
REMARK  200  A    between atoms: _507  and  _508
REMARK  201  A    between atoms: _507  and  _510
REMARK  202  A    between atoms: _510  and  _511
REMARK  203  A    between atoms: _511  and  _512
REMARK  204  A    between atoms: _512  and  _513
REMARK  205  A    between atoms: _522  and  _524
REMARK  206  A    between atoms: _524  and  _525
REMARK  207  A    between atoms: _524  and  _527
REMARK  208  A    between atoms: _527  and  _528
REMARK  209  A    between atoms: _528  and  _529
REMARK  210  A    between atoms: _529  and  _530
REMARK  211  A    between atoms: _530  and  _531
REMARK  212  A    between atoms: _535  and  _537
REMARK  213  A    between atoms: _537  and  _538
REMARK  214  A    between atoms: _540  and  _542
REMARK  215  A    between atoms: _542  and  _543
REMARK  216  A    between atoms: _542  and  _545
REMARK  217  A    between atoms: _548  and  _550
REMARK  218  A    between atoms: _550  and  _551
REMARK  219  A    between atoms: _550  and  _553
REMARK  220  A    between atoms: _553  and  _554
REMARK  221  A    between atoms: _556  and  _558
REMARK  222  A    between atoms: _558  and  _559
REMARK  223  A    between atoms: _558  and  _561
REMARK  224  A    between atoms: _561  and  _562
REMARK  225  A    between atoms: _567  and  _569
REMARK  226  A    between atoms: _569  and  _570
REMARK  227  A    between atoms: _572  and  _574
REMARK  228  A    between atoms: _574  and  _575
REMARK  229  A    between atoms: _574  and  _577
REMARK  230  A    between atoms: _577  and  _578
REMARK  231  A    between atoms: _584  and  _586
REMARK  232  A    between atoms: _586  and  _587
REMARK  233  A    between atoms: _586  and  _589
REMARK  234  A    between atoms: _589  and  _590
REMARK  235  A    between atoms: _596  and  _598
REMARK  236  A    between atoms: _598  and  _599
REMARK  237  A    between atoms: _598  and  _601
REMARK  238  A    between atoms: _601  and  _602
REMARK  239  A    between atoms: _605  and  _607
REMARK  240  A    between atoms: _607  and  _608
REMARK  241  A    between atoms: _607  and  _610
REMARK  242  A    between atoms: _610  and  _611
REMARK  243  A    between atoms: _611  and  _612
REMARK  244  A    between atoms: _612  and  _613
REMARK  245  A    between atoms: _613  and  _614
REMARK  246  A    between atoms: _618  and  _620
REMARK  247  A    between atoms: _620  and  _621
REMARK  248  A    between atoms: _620  and  _623
REMARK  249  A    between atoms: _623  and  _624
REMARK  250  A    between atoms: _624  and  _625
REMARK  251  A    between atoms: _625  and  _626
REMARK                            x       y       z     vdW  Elec       q    Type
REMARK                         _______ _______ _______ _____ _____    ______ ____
ROOT
ATOM      1  CA  THR A   1       1.647  12.738  -3.175  0.00  0.00    +0.160 C 
ENDROOT
BRANCH   1   2
ATOM      2  N   THR A   1       2.212  13.356  -4.368  0.00  0.00    -0.237 NA
ATOM      3  H   THR A   1       2.384  14.382  -4.383  0.00  0.00    +0.142 HD
ENDBRANCH   1   2
BRANCH   1   4
ATOM      4  CB  THR A   1       1.514  13.782  -2.036  0.00  0.00    +0.134 C 
ATOM      5  CG2 THR A   1       0.881  13.147  -0.789  0.00  0.00    +0.034 C 
BRANCH   4   6
ATOM      6  OG1 THR A   1       2.814  14.271  -1.692  0.00  0.00    -0.383 OA
ATOM      7  HG1 THR A   1       3.226  14.695  -2.486  0.00  0.00    +0.210 HD
ENDBRANCH   4   6
ENDBRANCH   1   4
BRANCH   1   8
ATOM      8  C   THR A   1       0.269  12.131  -3.490  0.00  0.00    +0.227 C 
ATOM      9  O   THR A   1      -0.080  11.069  -2.981  0.00  0.00    -0.287 OA
ENDBRANCH   1   8
TORSDOF 4
REMARK  Name = ../refined-set-2016/2am4/2am4_pocket.pdb
REMARK  251 active torsions:
REMARK  status: ('A' for Active; 'I' for Inactive)
REMARK    1  A    between atoms: _1  and  _3
REMARK    2  A    between atoms: _3  and  _4
REMARK    3  A    between atoms: _3  and  _6
REMARK    4  A    between atoms: _6  and  _7
REMARK    5  A    between atoms: _10  and  _12
REMARK    6  A    between atoms: _12  and  _13
REMARK    7  A    between atoms: _12  and  _15
REMARK    8  A    between atoms: _18  and  _20
REMARK    9  A    between atoms: _20  and  _21
REMARK   10  A    between atoms: _20  and  _23
REMARK   11  A    between atoms: _23  and  _24
REMARK   12  A    between atoms: _27  and  _29
REMARK   13  A    between atoms: _29  and  _30
REMARK   14  A    between atoms: _33  and  _35
REMARK   15  A    between atoms: _35  and  _36
REMARK   16  A    between atoms: _35  and  _38
REMARK   17  A    between atoms: _38  and  _39
REMARK   18  A    between atoms: _39  and  _109
REMARK   19  A    between atoms: _40  and  _42
REMARK   20  A    between atoms: _42  and  _43
REMARK   21  A    between atoms: _42  and  _45
REMARK   22  A    between atoms: _45  and  _46
REMARK   23  A    between atoms: _49  and  _51
REMARK   24  A    between atoms: _51  and  _52
REMARK   25  A    between atoms: _51  and  _54
REMARK   26  A    between atoms: _54  and  _55
REMARK   27  A    between atoms: _55  and  _56
REMARK   28  A    between atoms: _56  and  _57
REMARK   29  A    between atoms: _66  and  _68
REMARK   30  A    between atoms: _68  and  _69
REMARK   31  A    between atoms: _68  and  _71
REMARK   32  A    between atoms: _74  and  _76
REMARK   33  A    between atoms: _76  and  _77
REMARK   34  A    between atoms: _76  and  _79
REMARK   35  A    between atoms: _79  and  _80
REMARK   36  A    between atoms: _82  and  _84
REMARK   37  A    between atoms: _84  and  _85
REMARK   38  A    between atoms: _84  and  _87
REMARK   39  A    between atoms: _87  and  _88
REMARK   40  A    between atoms: _88  and  _89
REMARK   41  A    between atoms: _94  and  _96
REMARK   42  A    between atoms: _96  and  _97
REMARK   43  A    between atoms: _96  and  _99
REMARK   44  A    between atoms: _99  and  _100
REMARK   45  A    between atoms: _103  and  _105
REMARK   46  A    between atoms: _105  and  _106
REMARK   47  A    between atoms: _105  and  _108
REMARK   48  A    between atoms: _108  and  _109
REMARK   49  A    between atoms: _110  and  _112
REMARK   50  A    between atoms: _112  and  _113
REMARK   51  A    between atoms: _115  and  _117
REMARK   52  A    between atoms: _117  and  _118
REMARK   53  A    between atoms: _117  and  _120
REMARK   54  A    between atoms: _120  and  _121
REMARK   55  A    between atoms: _124  and  _126
REMARK   56  A    between atoms: _126  and  _127
REMARK   57  A    between atoms: _126  and  _129
REMARK   58  A    between atoms: _129  and  _130
REMARK   59  A    between atoms: _130  and  _131
REMARK   60  A    between atoms: _136  and  _138
REMARK   61  A    between atoms: _138  and  _139
REMARK   62  A    between atoms: _138  and  _141
REMARK   63  A    between atoms: _141  and  _142
REMARK   64  A    between atoms: _145  and  _147
REMARK   65  A    between atoms: _147  and  _148
REMARK   66  A    between atoms: _147  and  _150
REMARK   67  A    between atoms: _150  and  _151
REMARK   68  A    between atoms: _154  and  _156
REMARK   69  A    between atoms: _156  and  _157
REMARK   70  A    between atoms: _156  and  _159
REMARK   71  A    between atoms: _159  and  _160
REMARK   72  A    between atoms: _166  and  _168
REMARK   73  A    between atoms: _168  and  _169
REMARK   74  A    between atoms: _168  and  _171
REMARK   75  A    between atoms: _171  and  _172
REMARK   76  A    between atoms: _172  and  _173
REMARK   77  A    between atoms: _178  and  _180
REMARK   78  A    between atoms: _180  and  _181
REMARK   79  A    between atoms: _183  and  _185
REMARK   80  A    between atoms: _185  and  _186
REMARK   81  A    between atoms: _185  and  _188
REMARK   82  A    between atoms: _188  and  _189
REMARK   83  A    between atoms: _194  and  _195
REMARK   84  A    between atoms: _197  and  _199
REMARK   85  A    between atoms: _199  and  _200
REMARK   86  A    between atoms: _199  and  _202
REMARK   87  A    between atoms: _202  and  _203
REMARK   88  A    between atoms: _208  and  _209
REMARK   89  A    between atoms: _211  and  _213
REMARK   90  A    between atoms: _213  and  _214
REMARK   91  A    between atoms: _213  and  _216
REMARK   92  A    between atoms: _216  and  _217
REMARK   93  A    between atoms: _217  and  _218
REMARK   94  A    between atoms: _218  and  _219
REMARK   95  A    between atoms: _219  and  _220
REMARK   96  A    between atoms: _224  and  _226
REMARK   97  A    between atoms: _226  and  _227
REMARK   98  A    between atoms: _226  and  _229
REMARK   99  A    between atoms: _229  and  _230
REMARK  100  A    between atoms: _233  and  _235
REMARK  101  A    between atoms: _235  and  _236
REMARK  102  A    between atoms: _239  and  _241
REMARK  103  A    between atoms: _241  and  _242
REMARK  104  A    between atoms: _241  and  _244
REMARK  105  A    between atoms: _244  and  _245
REMARK  106  A    between atoms: _245  and  _246
REMARK  107  A    between atoms: _246  and  _247
REMARK  108  A    between atoms: _256  and  _258
REMARK  109  A    between atoms: _258  and  _259
REMARK  110  A    between atoms: _258  and  _261
REMARK  111  A    between atoms: _261  and  _262
REMARK  112  A    between atoms: _267  and  _269
REMARK  113  A    between atoms: _269  and  _270
REMARK  114  A    between atoms: _269  and  _272
REMARK  115  A    between atoms: _272  and  _273
REMARK  116  A    between atoms: _278  and  _279
REMARK  117  A    between atoms: _281  and  _283
REMARK  118  A    between atoms: _283  and  _284
REMARK  119  A    between atoms: _287  and  _289
REMARK  120  A    between atoms: _289  and  _290
REMARK  121  A    between atoms: _289  and  _292
REMARK  122  A    between atoms: _295  and  _297
REMARK  123  A    between atoms: _297  and  _298
REMARK  124  A    between atoms: _297  and  _300
REMARK  125  A    between atoms: _303  and  _305
REMARK  126  A    between atoms: _305  and  _306
REMARK  127  A    between atoms: _305  and  _308
REMARK  128  A    between atoms: _308  and  _309
REMARK  129  A    between atoms: _309  and  _310
REMARK  130  A    between atoms: _313  and  _315
REMARK  131  A    between atoms: _315  and  _316
REMARK  132  A    between atoms: _315  and  _318
REMARK  133  A    between atoms: _318  and  _319
REMARK  134  A    between atoms: _322  and  _324
REMARK  135  A    between atoms: _324  and  _325
REMARK  136  A    between atoms: _324  and  _327
REMARK  137  A    between atoms: _327  and  _328
REMARK  138  A    between atoms: _328  and  _330
REMARK  139  A    between atoms: _330  and  MN_635
REMARK  140  A    between atoms: _331  and  _333
REMARK  141  A    between atoms: _333  and  _334
REMARK  142  A    between atoms: _333  and  _336
REMARK  143  A    between atoms: _336  and  _337
REMARK  144  A    between atoms: _340  and  _342
REMARK  145  A    between atoms: _342  and  _343
REMARK  146  A    between atoms: _342  and  _345
REMARK  147  A    between atoms: _345  and  _346
REMARK  148  A    between atoms: _353  and  _354
REMARK  149  A    between atoms: _359  and  _361
REMARK  150  A    between atoms: _361  and  _362
REMARK  151  A    between atoms: _364  and  _366
REMARK  152  A    between atoms: _366  and  _367
REMARK  153  A    between atoms: _366  and  _369
REMARK  154  A    between atoms: _369  and  _370
REMARK  155  A    between atoms: _373  and  _375
REMARK  156  A    between atoms: _375  and  _376
REMARK  157  A    between atoms: _378  and  _380
REMARK  158  A    between atoms: _380  and  _381
REMARK  159  A    between atoms: _380  and  _383
REMARK  160  A    between atoms: _383  and  _384
REMARK  161  A    between atoms: _394  and  _396
REMARK  162  A    between atoms: _396  and  _397
REMARK  163  A    between atoms: _400  and  _402
REMARK  164  A    between atoms: _402  and  _403
REMARK  165  A    between atoms: _402  and  _405
REMARK  166  A    between atoms: _405  and  _406
REMARK  167  A    between atoms: _412  and  _414
REMARK  168  A    between atoms: _414  and  _415
REMARK  169  A    between atoms: _414  and  _417
REMARK  170  A    between atoms: _417  and  _418
REMARK  171  A    between atoms: _428  and  _430
REMARK  172  A    between atoms: _430  and  _431
REMARK  173  A    between atoms: _430  and  _433
REMARK  174  A    between atoms: _433  and  _434
REMARK  175  A    between atoms: _437  and  _439
REMARK  176  A    between atoms: _439  and  _440
REMARK  177  A    between atoms: _439  and  _442
REMARK  178  A    between atoms: _442  and  _443
REMARK  179  A    between atoms: _446  and  _448
REMARK  180  A    between atoms: _448  and  _449
REMARK  181  A    between atoms: _448  and  _451
REMARK  182  A    between atoms: _451  and  _452
REMARK  183  A    between atoms: _462  and  _464
REMARK  184  A    between atoms: _464  and  _465
REMARK  185  A    between atoms: _464  and  _467
REMARK  186  A    between atoms: _467  and  _468
REMARK  187  A    between atoms: _468  and  _469
REMARK  188  A    between atoms: _469  and  _470
REMARK  189  A    between atoms: _479  and  _481
REMARK  190  A    between atoms: _481  and  _482
REMARK  191  A    between atoms: _481  and  _484
REMARK  192  A    between atoms: _484  and  _485
REMARK  193  A    between atoms: _488  and  _490
REMARK  194  A    between atoms: _490  and  _491
REMARK  195  A    between atoms: _490  and  _493
REMARK  196  A    between atoms: _493  and  _494
REMARK  197  A    between atoms: _500  and  _502
REMARK  198  A    between atoms: _502  and  _503
REMARK  199  A    between atoms: _505  and  _507
REMARK  200  A    between atoms: _507  and  _508
REMARK  201  A    between atoms: _507  and  _510
REMARK  202  A    between atoms: _510  and  _511
REMARK  203  A    between atoms: _511  and  _512
REMARK  204  A    between atoms: _512  and  _513
REMARK  205  A    between atoms: _522  and  _524
REMARK  206  A    between atoms: _524  and  _525
REMARK  207  A    between atoms: _524  and  _527
REMARK  208  A    between atoms: _527  and  _528
REMARK  209  A    between atoms: _528  and  _529
REMARK  210  A    between atoms: _529  and  _530
REMARK  211  A    between atoms: _530  and  _531
REMARK  212  A    between atoms: _535  and  _537
REMARK  213  A    between atoms: _537  and  _538
REMARK  214  A    between atoms: _540  and  _542
REMARK  215  A    between atoms: _542  and  _543
REMARK  216  A    between atoms: _542  and  _545
REMARK  217  A    between atoms: _548  and  _550
REMARK  218  A    between atoms: _550  and  _551
REMARK  219  A    between atoms: _550  and  _553
REMARK  220  A    between atoms: _553  and  _554
REMARK  221  A    between atoms: _556  and  _558
REMARK  222  A    between atoms: _558  and  _559
REMARK  223  A    between atoms: _558  and  _561
REMARK  224  A    between atoms: _561  and  _562
REMARK  225  A    between atoms: _567  and  _569
REMARK  226  A    between atoms: _569  and  _570
REMARK  227  A    between atoms: _572  and  _574
REMARK  228  A    between atoms: _574  and  _575
REMARK  229  A    between atoms: _574  and  _577
REMARK  230  A    between atoms: _577  and  _578
REMARK  231  A    between atoms: _584  and  _586
REMARK  232  A    between atoms: _586  and  _587
REMARK  233  A    between atoms: _586  and  _589
REMARK  234  A    between atoms: _589  and  _590
REMARK  235  A    between atoms: _596  and  _598
REMARK  236  A    between atoms: _598  and  _599
REMARK  237  A    between atoms: _598  and  _601
REMARK  238  A    between atoms: _601  and  _602
REMARK  239  A    between atoms: _605  and  _607
REMARK  240  A    between atoms: _607  and  _608
REMARK  241  A    between atoms: _607  and  _610
REMARK  242  A    between atoms: _610  and  _611
REMARK  243  A    between atoms: _611  and  _612
REMARK  244  A    between atoms: _612  and  _613
REMARK  245  A    between atoms: _613  and  _614
REMARK  246  A    between atoms: _618  and  _620
REMARK  247  A    between atoms: _620  and  _621
REMARK  248  A    between atoms: _620  and  _623
REMARK  249  A    between atoms: _623  and  _624
REMARK  250  A    between atoms: _624  and  _625
REMARK  251  A    between atoms: _625  and  _626
REMARK                            x       y       z     vdW  Elec       q    Type
REMARK                         _______ _______ _______ _____ _____    ______ ____
ROOT
ATOM      1  CB  GLN A   1      -8.675  19.555   2.156  0.00  0.00    +0.035 C 
ENDROOT
BRANCH   1   2
ATOM      2  CA  GLN A   1      -9.777  18.980   1.263  0.00  0.00    +0.134 C 
BRANCH   2   3
ATOM      3  N   GLN A   1      -9.294  17.745   0.645  0.00  0.00    -0.239 NA
ATOM      4  H   GLN A   1      -8.329  17.417   0.852  0.00  0.00    +0.142 HD
ENDBRANCH   2   3
BRANCH   2   5
ATOM      5  C   GLN A   1     -10.126  19.887   0.070  0.00  0.00    +0.224 C 
ATOM      6  O   GLN A   1      -9.291  20.156  -0.784  0.00  0.00    -0.287 OA
ENDBRANCH   2   5
ENDBRANCH   1   2
BRANCH   1   7
ATOM      7  CG  GLN A   1      -9.162  20.526   3.222  0.00  0.00    +0.087 C 
BRANCH   7   8
ATOM      8  CD  GLN A   1      -9.375  21.912   2.673  0.00  0.00    +0.219 C 
ATOM      9  OE1 GLN A   1     -10.503  22.386   2.573  0.00  0.00    -0.275 OA
ATOM     10  NE2 GLN A   1      -8.280  22.576   2.313  0.00  0.00    -0.329 N 
ATOM     11 HE21 GLN A   1      -7.345  22.132   2.417  0.00  0.00    +0.145 HD
ATOM     12 HE22 GLN A   1      -8.359  23.539   1.928  0.00  0.00    +0.145 HD
ENDBRANCH   7   8
ENDBRANCH   1   7
TORSDOF 5
REMARK  Name = ../refined-set-2016/2am4/2am4_pocket.pdb
REMARK  251 active torsions:
REMARK  status: ('A' for Active; 'I' for Inactive)
REMARK    1  A    between atoms: _1  and  _3
REMARK    2  A    between atoms: _3  and  _4
REMARK    3  A    between atoms: _3  and  _6
REMARK    4  A    between atoms: _6  and  _7
REMARK    5  A    between atoms: _10  and  _12
REMARK    6  A    between atoms: _12  and  _13
REMARK    7  A    between atoms: _12  and  _15
REMARK    8  A    between atoms: _18  and  _20
REMARK    9  A    between atoms: _20  and  _21
REMARK   10  A    between atoms: _20  and  _23
REMARK   11  A    between atoms: _23  and  _24
REMARK   12  A    between atoms: _27  and  _29
REMARK   13  A    between atoms: _29  and  _30
REMARK   14  A    between atoms: _33  and  _35
REMARK   15  A    between atoms: _35  and  _36
REMARK   16  A    between atoms: _35  and  _38
REMARK   17  A    between atoms: _38  and  _39
REMARK   18  A    between atoms: _39  and  _109
REMARK   19  A    between atoms: _40  and  _42
REMARK   20  A    between atoms: _42  and  _43
REMARK   21  A    between atoms: _42  and  _45
REMARK   22  A    between atoms: _45  and  _46
REMARK   23  A    between atoms: _49  and  _51
REMARK   24  A    between atoms: _51  and  _52
REMARK   25  A    between atoms: _51  and  _54
REMARK   26  A    between atoms: _54  and  _55
REMARK   27  A    between atoms: _55  and  _56
REMARK   28  A    between atoms: _56  and  _57
REMARK   29  A    between atoms: _66  and  _68
REMARK   30  A    between atoms: _68  and  _69
REMARK   31  A    between atoms: _68  and  _71
REMARK   32  A    between atoms: _74  and  _76
REMARK   33  A    between atoms: _76  and  _77
REMARK   34  A    between atoms: _76  and  _79
REMARK   35  A    between atoms: _79  and  _80
REMARK   36  A    between atoms: _82  and  _84
REMARK   37  A    between atoms: _84  and  _85
REMARK   38  A    between atoms: _84  and  _87
REMARK   39  A    between atoms: _87  and  _88
REMARK   40  A    between atoms: _88  and  _89
REMARK   41  A    between atoms: _94  and  _96
REMARK   42  A    between atoms: _96  and  _97
REMARK   43  A    between atoms: _96  and  _99
REMARK   44  A    between atoms: _99  and  _100
REMARK   45  A    between atoms: _103  and  _105
REMARK   46  A    between atoms: _105  and  _106
REMARK   47  A    between atoms: _105  and  _108
REMARK   48  A    between atoms: _108  and  _109
REMARK   49  A    between atoms: _110  and  _112
REMARK   50  A    between atoms: _112  and  _113
REMARK   51  A    between atoms: _115  and  _117
REMARK   52  A    between atoms: _117  and  _118
REMARK   53  A    between atoms: _117  and  _120
REMARK   54  A    between atoms: _120  and  _121
REMARK   55  A    between atoms: _124  and  _126
REMARK   56  A    between atoms: _126  and  _127
REMARK   57  A    between atoms: _126  and  _129
REMARK   58  A    between atoms: _129  and  _130
REMARK   59  A    between atoms: _130  and  _131
REMARK   60  A    between atoms: _136  and  _138
REMARK   61  A    between atoms: _138  and  _139
REMARK   62  A    between atoms: _138  and  _141
REMARK   63  A    between atoms: _141  and  _142
REMARK   64  A    between atoms: _145  and  _147
REMARK   65  A    between atoms: _147  and  _148
REMARK   66  A    between atoms: _147  and  _150
REMARK   67  A    between atoms: _150  and  _151
REMARK   68  A    between atoms: _154  and  _156
REMARK   69  A    between atoms: _156  and  _157
REMARK   70  A    between atoms: _156  and  _159
REMARK   71  A    between atoms: _159  and  _160
REMARK   72  A    between atoms: _166  and  _168
REMARK   73  A    between atoms: _168  and  _169
REMARK   74  A    between atoms: _168  and  _171
REMARK   75  A    between atoms: _171  and  _172
REMARK   76  A    between atoms: _172  and  _173
REMARK   77  A    between atoms: _178  and  _180
REMARK   78  A    between atoms: _180  and  _181
REMARK   79  A    between atoms: _183  and  _185
REMARK   80  A    between atoms: _185  and  _186
REMARK   81  A    between atoms: _185  and  _188
REMARK   82  A    between atoms: _188  and  _189
REMARK   83  A    between atoms: _194  and  _195
REMARK   84  A    between atoms: _197  and  _199
REMARK   85  A    between atoms: _199  and  _200
REMARK   86  A    between atoms: _199  and  _202
REMARK   87  A    between atoms: _202  and  _203
REMARK   88  A    between atoms: _208  and  _209
REMARK   89  A    between atoms: _211  and  _213
REMARK   90  A    between atoms: _213  and  _214
REMARK   91  A    between atoms: _213  and  _216
REMARK   92  A    between atoms: _216  and  _217
REMARK   93  A    between atoms: _217  and  _218
REMARK   94  A    between atoms: _218  and  _219
REMARK   95  A    between atoms: _219  and  _220
REMARK   96  A    between atoms: _224  and  _226
REMARK   97  A    between atoms: _226  and  _227
REMARK   98  A    between atoms: _226  and  _229
REMARK   99  A    between atoms: _229  and  _230
REMARK  100  A    between atoms: _233  and  _235
REMARK  101  A    between atoms: _235  and  _236
REMARK  102  A    between atoms: _239  and  _241
REMARK  103  A    between atoms: _241  and  _242
REMARK  104  A    between atoms: _241  and  _244
REMARK  105  A    between atoms: _244  and  _245
REMARK  106  A    between atoms: _245  and  _246
REMARK  107  A    between atoms: _246  and  _247
REMARK  108  A    between atoms: _256  and  _258
REMARK  109  A    between atoms: _258  and  _259
REMARK  110  A    between atoms: _258  and  _261
REMARK  111  A    between atoms: _261  and  _262
REMARK  112  A    between atoms: _267  and  _269
REMARK  113  A    between atoms: _269  and  _270
REMARK  114  A    between atoms: _269  and  _272
REMARK  115  A    between atoms: _272  and  _273
REMARK  116  A    between atoms: _278  and  _279
REMARK  117  A    between atoms: _281  and  _283
REMARK  118  A    between atoms: _283  and  _284
REMARK  119  A    between atoms: _287  and  _289
REMARK  120  A    between atoms: _289  and  _290
REMARK  121  A    between atoms: _289  and  _292
REMARK  122  A    between atoms: _295  and  _297
REMARK  123  A    between atoms: _297  and  _298
REMARK  124  A    between atoms: _297  and  _300
REMARK  125  A    between atoms: _303  and  _305
REMARK  126  A    between atoms: _305  and  _306
REMARK  127  A    between atoms: _305  and  _308
REMARK  128  A    between atoms: _308  and  _309
REMARK  129  A    between atoms: _309  and  _310
REMARK  130  A    between atoms: _313  and  _315
REMARK  131  A    between atoms: _315  and  _316
REMARK  132  A    between atoms: _315  and  _318
REMARK  133  A    between atoms: _318  and  _319
REMARK  134  A    between atoms: _322  and  _324
REMARK  135  A    between atoms: _324  and  _325
REMARK  136  A    between atoms: _324  and  _327
REMARK  137  A    between atoms: _327  and  _328
REMARK  138  A    between atoms: _328  and  _330
REMARK  139  A    between atoms: _330  and  MN_635
REMARK  140  A    between atoms: _331  and  _333
REMARK  141  A    between atoms: _333  and  _334
REMARK  142  A    between atoms: _333  and  _336
REMARK  143  A    between atoms: _336  and  _337
REMARK  144  A    between atoms: _340  and  _342
REMARK  145  A    between atoms: _342  and  _343
REMARK  146  A    between atoms: _342  and  _345
REMARK  147  A    between atoms: _345  and  _346
REMARK  148  A    between atoms: _353  and  _354
REMARK  149  A    between atoms: _359  and  _361
REMARK  150  A    between atoms: _361  and  _362
REMARK  151  A    between atoms: _364  and  _366
REMARK  152  A    between atoms: _366  and  _367
REMARK  153  A    between atoms: _366  and  _369
REMARK  154  A    between atoms: _369  and  _370
REMARK  155  A    between atoms: _373  and  _375
REMARK  156  A    between atoms: _375  and  _376
REMARK  157  A    between atoms: _378  and  _380
REMARK  158  A    between atoms: _380  and  _381
REMARK  159  A    between atoms: _380  and  _383
REMARK  160  A    between atoms: _383  and  _384
REMARK  161  A    between atoms: _394  and  _396
REMARK  162  A    between atoms: _396  and  _397
REMARK  163  A    between atoms: _400  and  _402
REMARK  164  A    between atoms: _402  and  _403
REMARK  165  A    between atoms: _402  and  _405
REMARK  166  A    between atoms: _405  and  _406
REMARK  167  A    between atoms: _412  and  _414
REMARK  168  A    between atoms: _414  and  _415
REMARK  169  A    between atoms: _414  and  _417
REMARK  170  A    between atoms: _417  and  _418
REMARK  171  A    between atoms: _428  and  _430
REMARK  172  A    between atoms: _430  and  _431
REMARK  173  A    between atoms: _430  and  _433
REMARK  174  A    between atoms: _433  and  _434
REMARK  175  A    between atoms: _437  and  _439
REMARK  176  A    between atoms: _439  and  _440
REMARK  177  A    between atoms: _439  and  _442
REMARK  178  A    between atoms: _442  and  _443
REMARK  179  A    between atoms: _446  and  _448
REMARK  180  A    between atoms: _448  and  _449
REMARK  181  A    between atoms: _448  and  _451
REMARK  182  A    between atoms: _451  and  _452
REMARK  183  A    between atoms: _462  and  _464
REMARK  184  A    between atoms: _464  and  _465
REMARK  185  A    between atoms: _464  and  _467
REMARK  186  A    between atoms: _467  and  _468
REMARK  187  A    between atoms: _468  and  _469
REMARK  188  A    between atoms: _469  and  _470
REMARK  189  A    between atoms: _479  and  _481
REMARK  190  A    between atoms: _481  and  _482
REMARK  191  A    between atoms: _481  and  _484
REMARK  192  A    between atoms: _484  and  _485
REMARK  193  A    between atoms: _488  and  _490
REMARK  194  A    between atoms: _490  and  _491
REMARK  195  A    between atoms: _490  and  _493
REMARK  196  A    between atoms: _493  and  _494
REMARK  197  A    between atoms: _500  and  _502
REMARK  198  A    between atoms: _502  and  _503
REMARK  199  A    between atoms: _505  and  _507
REMARK  200  A    between atoms: _507  and  _508
REMARK  201  A    between atoms: _507  and  _510
REMARK  202  A    between atoms: _510  and  _511
REMARK  203  A    between atoms: _511  and  _512
REMARK  204  A    between atoms: _512  and  _513
REMARK  205  A    between atoms: _522  and  _524
REMARK  206  A    between atoms: _524  and  _525
REMARK  207  A    between atoms: _524  and  _527
REMARK  208  A    between atoms: _527  and  _528
REMARK  209  A    between atoms: _528  and  _529
REMARK  210  A    between atoms: _529  and  _530
REMARK  211  A    between atoms: _530  and  _531
REMARK  212  A    between atoms: _535  and  _537
REMARK  213  A    between atoms: _537  and  _538
REMARK  214  A    between atoms: _540  and  _542
REMARK  215  A    between atoms: _542  and  _543
REMARK  216  A    between atoms: _542  and  _545
REMARK  217  A    between atoms: _548  and  _550
REMARK  218  A    between atoms: _550  and  _551
REMARK  219  A    between atoms: _550  and  _553
REMARK  220  A    between atoms: _553  and  _554
REMARK  221  A    between atoms: _556  and  _558
REMARK  222  A    between atoms: _558  and  _559
REMARK  223  A    between atoms: _558  and  _561
REMARK  224  A    between atoms: _561  and  _562
REMARK  225  A    between atoms: _567  and  _569
REMARK  226  A    between atoms: _569  and  _570
REMARK  227  A    between atoms: _572  and  _574
REMARK  228  A    between atoms: _574  and  _575
REMARK  229  A    between atoms: _574  and  _577
REMARK  230  A    between atoms: _577  and  _578
REMARK  231  A    between atoms: _584  and  _586
REMARK  232  A    between atoms: _586  and  _587
REMARK  233  A    between atoms: _586  and  _589
REMARK  234  A    between atoms: _589  and  _590
REMARK  235  A    between atoms: _596  and  _598
REMARK  236  A    between atoms: _598  and  _599
REMARK  237  A    between atoms: _598  and  _601
REMARK  238  A    between atoms: _601  and  _602
REMARK  239  A    between atoms: _605  and  _607
REMARK  240  A    between atoms: _607  and  _608
REMARK  241  A    between atoms: _607  and  _610
REMARK  242  A    between atoms: _610  and  _611
REMARK  243  A    between atoms: _611  and  _612
REMARK  244  A    between atoms: _612  and  _613
REMARK  245  A    between atoms: _613  and  _614
REMARK  246  A    between atoms: _618  and  _620
REMARK  247  A    between atoms: _620  and  _621
REMARK  248  A    between atoms: _620  and  _623
REMARK  249  A    between atoms: _623  and  _624
REMARK  250  A    between atoms: _624  and  _625
REMARK  251  A    between atoms: _625  and  _626
REMARK                            x       y       z     vdW  Elec       q    Type
REMARK                         _______ _______ _______ _____ _____    ______ ____
ROOT
ATOM      1  CA  LEU A   1      -7.091  25.341  -1.249  0.00  0.00    +0.133 C 
ENDROOT
BRANCH   1   2
ATOM      2  N   LEU A   1      -8.540  25.159  -1.228  0.00  0.00    -0.239 NA
ATOM      3  H   LEU A   1      -9.076  25.181  -2.119  0.00  0.00    +0.142 HD
ENDBRANCH   1   2
BRANCH   1   4
ATOM      4  C   LEU A   1      -6.610  26.787  -1.252  0.00  0.00    +0.224 C 
ATOM      5  O   LEU A   1      -5.454  27.076  -1.575  0.00  0.00    -0.287 OA
ENDBRANCH   1   4
BRANCH   1   6
ATOM      6  CB  LEU A   1      -6.507  24.574  -2.439  0.00  0.00    +0.025 C 
BRANCH   6   7
ATOM      7  CG  LEU A   1      -6.776  23.060  -2.384  0.00  0.00    +0.002 C 
ATOM      8  CD2 LEU A   1      -6.355  22.510  -1.012  0.00  0.00    +0.000 C 
ATOM      9  CD1 LEU A   1      -6.015  22.348  -3.497  0.00  0.00    +0.000 C 
ENDBRANCH   6   7
ENDBRANCH   1   6
TORSDOF 4
REMARK  Name = ../refined-set-2016/2am4/2am4_pocket.pdb
REMARK  251 active torsions:
REMARK  status: ('A' for Active; 'I' for Inactive)
REMARK    1  A    between atoms: _1  and  _3
REMARK    2  A    between atoms: _3  and  _4
REMARK    3  A    between atoms: _3  and  _6
REMARK    4  A    between atoms: _6  and  _7
REMARK    5  A    between atoms: _10  and  _12
REMARK    6  A    between atoms: _12  and  _13
REMARK    7  A    between atoms: _12  and  _15
REMARK    8  A    between atoms: _18  and  _20
REMARK    9  A    between atoms: _20  and  _21
REMARK   10  A    between atoms: _20  and  _23
REMARK   11  A    between atoms: _23  and  _24
REMARK   12  A    between atoms: _27  and  _29
REMARK   13  A    between atoms: _29  and  _30
REMARK   14  A    between atoms: _33  and  _35
REMARK   15  A    between atoms: _35  and  _36
REMARK   16  A    between atoms: _35  and  _38
REMARK   17  A    between atoms: _38  and  _39
REMARK   18  A    between atoms: _39  and  _109
REMARK   19  A    between atoms: _40  and  _42
REMARK   20  A    between atoms: _42  and  _43
REMARK   21  A    between atoms: _42  and  _45
REMARK   22  A    between atoms: _45  and  _46
REMARK   23  A    between atoms: _49  and  _51
REMARK   24  A    between atoms: _51  and  _52
REMARK   25  A    between atoms: _51  and  _54
REMARK   26  A    between atoms: _54  and  _55
REMARK   27  A    between atoms: _55  and  _56
REMARK   28  A    between atoms: _56  and  _57
REMARK   29  A    between atoms: _66  and  _68
REMARK   30  A    between atoms: _68  and  _69
REMARK   31  A    between atoms: _68  and  _71
REMARK   32  A    between atoms: _74  and  _76
REMARK   33  A    between atoms: _76  and  _77
REMARK   34  A    between atoms: _76  and  _79
REMARK   35  A    between atoms: _79  and  _80
REMARK   36  A    between atoms: _82  and  _84
REMARK   37  A    between atoms: _84  and  _85
REMARK   38  A    between atoms: _84  and  _87
REMARK   39  A    between atoms: _87  and  _88
REMARK   40  A    between atoms: _88  and  _89
REMARK   41  A    between atoms: _94  and  _96
REMARK   42  A    between atoms: _96  and  _97
REMARK   43  A    between atoms: _96  and  _99
REMARK   44  A    between atoms: _99  and  _100
REMARK   45  A    between atoms: _103  and  _105
REMARK   46  A    between atoms: _105  and  _106
REMARK   47  A    between atoms: _105  and  _108
REMARK   48  A    between atoms: _108  and  _109
REMARK   49  A    between atoms: _110  and  _112
REMARK   50  A    between atoms: _112  and  _113
REMARK   51  A    between atoms: _115  and  _117
REMARK   52  A    between atoms: _117  and  _118
REMARK   53  A    between atoms: _117  and  _120
REMARK   54  A    between atoms: _120  and  _121
REMARK   55  A    between atoms: _124  and  _126
REMARK   56  A    between atoms: _126  and  _127
REMARK   57  A    between atoms: _126  and  _129
REMARK   58  A    between atoms: _129  and  _130
REMARK   59  A    between atoms: _130  and  _131
REMARK   60  A    between atoms: _136  and  _138
REMARK   61  A    between atoms: _138  and  _139
REMARK   62  A    between atoms: _138  and  _141
REMARK   63  A    between atoms: _141  and  _142
REMARK   64  A    between atoms: _145  and  _147
REMARK   65  A    between atoms: _147  and  _148
REMARK   66  A    between atoms: _147  and  _150
REMARK   67  A    between atoms: _150  and  _151
REMARK   68  A    between atoms: _154  and  _156
REMARK   69  A    between atoms: _156  and  _157
REMARK   70  A    between atoms: _156  and  _159
REMARK   71  A    between atoms: _159  and  _160
REMARK   72  A    between atoms: _166  and  _168
REMARK   73  A    between atoms: _168  and  _169
REMARK   74  A    between atoms: _168  and  _171
REMARK   75  A    between atoms: _171  and  _172
REMARK   76  A    between atoms: _172  and  _173
REMARK   77  A    between atoms: _178  and  _180
REMARK   78  A    between atoms: _180  and  _181
REMARK   79  A    between atoms: _183  and  _185
REMARK   80  A    between atoms: _185  and  _186
REMARK   81  A    between atoms: _185  and  _188
REMARK   82  A    between atoms: _188  and  _189
REMARK   83  A    between atoms: _194  and  _195
REMARK   84  A    between atoms: _197  and  _199
REMARK   85  A    between atoms: _199  and  _200
REMARK   86  A    between atoms: _199  and  _202
REMARK   87  A    between atoms: _202  and  _203
REMARK   88  A    between atoms: _208  and  _209
REMARK   89  A    between atoms: _211  and  _213
REMARK   90  A    between atoms: _213  and  _214
REMARK   91  A    between atoms: _213  and  _216
REMARK   92  A    between atoms: _216  and  _217
REMARK   93  A    between atoms: _217  and  _218
REMARK   94  A    between atoms: _218  and  _219
REMARK   95  A    between atoms: _219  and  _220
REMARK   96  A    between atoms: _224  and  _226
REMARK   97  A    between atoms: _226  and  _227
REMARK   98  A    between atoms: _226  and  _229
REMARK   99  A    between atoms: _229  and  _230
REMARK  100  A    between atoms: _233  and  _235
REMARK  101  A    between atoms: _235  and  _236
REMARK  102  A    between atoms: _239  and  _241
REMARK  103  A    between atoms: _241  and  _242
REMARK  104  A    between atoms: _241  and  _244
REMARK  105  A    between atoms: _244  and  _245
REMARK  106  A    between atoms: _245  and  _246
REMARK  107  A    between atoms: _246  and  _247
REMARK  108  A    between atoms: _256  and  _258
REMARK  109  A    between atoms: _258  and  _259
REMARK  110  A    between atoms: _258  and  _261
REMARK  111  A    between atoms: _261  and  _262
REMARK  112  A    between atoms: _267  and  _269
REMARK  113  A    between atoms: _269  and  _270
REMARK  114  A    between atoms: _269  and  _272
REMARK  115  A    between atoms: _272  and  _273
REMARK  116  A    between atoms: _278  and  _279
REMARK  117  A    between atoms: _281  and  _283
REMARK  118  A    between atoms: _283  and  _284
REMARK  119  A    between atoms: _287  and  _289
REMARK  120  A    between atoms: _289  and  _290
REMARK  121  A    between atoms: _289  and  _292
REMARK  122  A    between atoms: _295  and  _297
REMARK  123  A    between atoms: _297  and  _298
REMARK  124  A    between atoms: _297  and  _300
REMARK  125  A    between atoms: _303  and  _305
REMARK  126  A    between atoms: _305  and  _306
REMARK  127  A    between atoms: _305  and  _308
REMARK  128  A    between atoms: _308  and  _309
REMARK  129  A    between atoms: _309  and  _310
REMARK  130  A    between atoms: _313  and  _315
REMARK  131  A    between atoms: _315  and  _316
REMARK  132  A    between atoms: _315  and  _318
REMARK  133  A    between atoms: _318  and  _319
REMARK  134  A    between atoms: _322  and  _324
REMARK  135  A    between atoms: _324  and  _325
REMARK  136  A    between atoms: _324  and  _327
REMARK  137  A    between atoms: _327  and  _328
REMARK  138  A    between atoms: _328  and  _330
REMARK  139  A    between atoms: _330  and  MN_635
REMARK  140  A    between atoms: _331  and  _333
REMARK  141  A    between atoms: _333  and  _334
REMARK  142  A    between atoms: _333  and  _336
REMARK  143  A    between atoms: _336  and  _337
REMARK  144  A    between atoms: _340  and  _342
REMARK  145  A    between atoms: _342  and  _343
REMARK  146  A    between atoms: _342  and  _345
REMARK  147  A    between atoms: _345  and  _346
REMARK  148  A    between atoms: _353  and  _354
REMARK  149  A    between atoms: _359  and  _361
REMARK  150  A    between atoms: _361  and  _362
REMARK  151  A    between atoms: _364  and  _366
REMARK  152  A    between atoms: _366  and  _367
REMARK  153  A    between atoms: _366  and  _369
REMARK  154  A    between atoms: _369  and  _370
REMARK  155  A    between atoms: _373  and  _375
REMARK  156  A    between atoms: _375  and  _376
REMARK  157  A    between atoms: _378  and  _380
REMARK  158  A    between atoms: _380  and  _381
REMARK  159  A    between atoms: _380  and  _383
REMARK  160  A    between atoms: _383  and  _384
REMARK  161  A    between atoms: _394  and  _396
REMARK  162  A    between atoms: _396  and  _397
REMARK  163  A    between atoms: _400  and  _402
REMARK  164  A    between atoms: _402  and  _403
REMARK  165  A    between atoms: _402  and  _405
REMARK  166  A    between atoms: _405  and  _406
REMARK  167  A    between atoms: _412  and  _414
REMARK  168  A    between atoms: _414  and  _415
REMARK  169  A    between atoms: _414  and  _417
REMARK  170  A    between atoms: _417  and  _418
REMARK  171  A    between atoms: _428  and  _430
REMARK  172  A    between atoms: _430  and  _431
REMARK  173  A    between atoms: _430  and  _433
REMARK  174  A    between atoms: _433  and  _434
REMARK  175  A    between atoms: _437  and  _439
REMARK  176  A    between atoms: _439  and  _440
REMARK  177  A    between atoms: _439  and  _442
REMARK  178  A    between atoms: _442  and  _443
REMARK  179  A    between atoms: _446  and  _448
REMARK  180  A    between atoms: _448  and  _449
REMARK  181  A    between atoms: _448  and  _451
REMARK  182  A    between atoms: _451  and  _452
REMARK  183  A    between atoms: _462  and  _464
REMARK  184  A    between atoms: _464  and  _465
REMARK  185  A    between atoms: _464  and  _467
REMARK  186  A    between atoms: _467  and  _468
REMARK  187  A    between atoms: _468  and  _469
REMARK  188  A    between atoms: _469  and  _470
REMARK  189  A    between atoms: _479  and  _481
REMARK  190  A    between atoms: _481  and  _482
REMARK  191  A    between atoms: _481  and  _484
REMARK  192  A    between atoms: _484  and  _485
REMARK  193  A    between atoms: _488  and  _490
REMARK  194  A    between atoms: _490  and  _491
REMARK  195  A    between atoms: _490  and  _493
REMARK  196  A    between atoms: _493  and  _494
REMARK  197  A    between atoms: _500  and  _502
REMARK  198  A    between atoms: _502  and  _503
REMARK  199  A    between atoms: _505  and  _507
REMARK  200  A    between atoms: _507  and  _508
REMARK  201  A    between atoms: _507  and  _510
REMARK  202  A    between atoms: _510  and  _511
REMARK  203  A    between atoms: _511  and  _512
REMARK  204  A    between atoms: _512  and  _513
REMARK  205  A    between atoms: _522  and  _524
REMARK  206  A    between atoms: _524  and  _525
REMARK  207  A    between atoms: _524  and  _527
REMARK  208  A    between atoms: _527  and  _528
REMARK  209  A    between atoms: _528  and  _529
REMARK  210  A    between atoms: _529  and  _530
REMARK  211  A    between atoms: _530  and  _531
REMARK  212  A    between atoms: _535  and  _537
REMARK  213  A    between atoms: _537  and  _538
REMARK  214  A    between atoms: _540  and  _542
REMARK  215  A    between atoms: _542  and  _543
REMARK  216  A    between atoms: _542  and  _545
REMARK  217  A    between atoms: _548  and  _550
REMARK  218  A    between atoms: _550  and  _551
REMARK  219  A    between atoms: _550  and  _553
REMARK  220  A    between atoms: _553  and  _554
REMARK  221  A    between atoms: _556  and  _558
REMARK  222  A    between atoms: _558  and  _559
REMARK  223  A    between atoms: _558  and  _561
REMARK  224  A    between atoms: _561  and  _562
REMARK  225  A    between atoms: _567  and  _569
REMARK  226  A    between atoms: _569  and  _570
REMARK  227  A    between atoms: _572  and  _574
REMARK  228  A    between atoms: _574  and  _575
REMARK  229  A    between atoms: _574  and  _577
REMARK  230  A    between atoms: _577  and  _578
REMARK  231  A    between atoms: _584  and  _586
REMARK  232  A    between atoms: _586  and  _587
REMARK  233  A    between atoms: _586  and  _589
REMARK  234  A    between atoms: _589  and  _590
REMARK  235  A    between atoms: _596  and  _598
REMARK  236  A    between atoms: _598  and  _599
REMARK  237  A    between atoms: _598  and  _601
REMARK  238  A    between atoms: _601  and  _602
REMARK  239  A    between atoms: _605  and  _607
REMARK  240  A    between atoms: _607  and  _608
REMARK  241  A    between atoms: _607  and  _610
REMARK  242  A    between atoms: _610  and  _611
REMARK  243  A    between atoms: _611  and  _612
REMARK  244  A    between atoms: _612  and  _613
REMARK  245  A    between atoms: _613  and  _614
REMARK  246  A    between atoms: _618  and  _620
REMARK  247  A    between atoms: _620  and  _621
REMARK  248  A    between atoms: _620  and  _623
REMARK  249  A    between atoms: _623  and  _624
REMARK  250  A    between atoms: _624  and  _625
REMARK  251  A    between atoms: _625  and  _626
REMARK                            x       y       z     vdW  Elec       q    Type
REMARK                         _______ _______ _______ _____ _____    ______ ____
ROOT
ATOM      1  CA  ILE A   1      -5.987  32.036   4.727  0.00  0.00    +0.133 C 
ENDROOT
BRANCH   1   2
ATOM      2  N   ILE A   1      -5.175  31.610   3.603  0.00  0.00    -0.239 NA
ATOM      3  H   ILE A   1      -4.213  31.256   3.775  0.00  0.00    +0.142 HD
ENDBRANCH   1   2
BRANCH   1   4
ATOM      4  CB  ILE A   1      -5.938  30.981   5.862  0.00  0.00    +0.023 C 
ATOM      5  CG2 ILE A   1      -6.792  31.433   7.040  0.00  0.00    +0.002 C 
BRANCH   4   6
ATOM      6  CG1 ILE A   1      -6.424  29.623   5.332  0.00  0.00    +0.002 C 
ATOM      7  CD1 ILE A   1      -6.177  28.456   6.296  0.00  0.00    +0.000 C 
ENDBRANCH   4   6
ENDBRANCH   1   4
BRANCH   1   8
ATOM      8  C   ILE A   1      -5.525  33.373   5.283  0.00  0.00    +0.224 C 
ATOM      9  O   ILE A   1      -4.326  33.617   5.416  0.00  0.00    -0.287 OA
ENDBRANCH   1   8
TORSDOF 4
REMARK  Name = ../refined-set-2016/2am4/2am4_pocket.pdb
REMARK  251 active torsions:
REMARK  status: ('A' for Active; 'I' for Inactive)
REMARK    1  A    between atoms: _1  and  _3
REMARK    2  A    between atoms: _3  and  _4
REMARK    3  A    between atoms: _3  and  _6
REMARK    4  A    between atoms: _6  and  _7
REMARK    5  A    between atoms: _10  and  _12
REMARK    6  A    between atoms: _12  and  _13
REMARK    7  A    between atoms: _12  and  _15
REMARK    8  A    between atoms: _18  and  _20
REMARK    9  A    between atoms: _20  and  _21
REMARK   10  A    between atoms: _20  and  _23
REMARK   11  A    between atoms: _23  and  _24
REMARK   12  A    between atoms: _27  and  _29
REMARK   13  A    between atoms: _29  and  _30
REMARK   14  A    between atoms: _33  and  _35
REMARK   15  A    between atoms: _35  and  _36
REMARK   16  A    between atoms: _35  and  _38
REMARK   17  A    between atoms: _38  and  _39
REMARK   18  A    between atoms: _39  and  _109
REMARK   19  A    between atoms: _40  and  _42
REMARK   20  A    between atoms: _42  and  _43
REMARK   21  A    between atoms: _42  and  _45
REMARK   22  A    between atoms: _45  and  _46
REMARK   23  A    between atoms: _49  and  _51
REMARK   24  A    between atoms: _51  and  _52
REMARK   25  A    between atoms: _51  and  _54
REMARK   26  A    between atoms: _54  and  _55
REMARK   27  A    between atoms: _55  and  _56
REMARK   28  A    between atoms: _56  and  _57
REMARK   29  A    between atoms: _66  and  _68
REMARK   30  A    between atoms: _68  and  _69
REMARK   31  A    between atoms: _68  and  _71
REMARK   32  A    between atoms: _74  and  _76
REMARK   33  A    between atoms: _76  and  _77
REMARK   34  A    between atoms: _76  and  _79
REMARK   35  A    between atoms: _79  and  _80
REMARK   36  A    between atoms: _82  and  _84
REMARK   37  A    between atoms: _84  and  _85
REMARK   38  A    between atoms: _84  and  _87
REMARK   39  A    between atoms: _87  and  _88
REMARK   40  A    between atoms: _88  and  _89
REMARK   41  A    between atoms: _94  and  _96
REMARK   42  A    between atoms: _96  and  _97
REMARK   43  A    between atoms: _96  and  _99
REMARK   44  A    between atoms: _99  and  _100
REMARK   45  A    between atoms: _103  and  _105
REMARK   46  A    between atoms: _105  and  _106
REMARK   47  A    between atoms: _105  and  _108
REMARK   48  A    between atoms: _108  and  _109
REMARK   49  A    between atoms: _110  and  _112
REMARK   50  A    between atoms: _112  and  _113
REMARK   51  A    between atoms: _115  and  _117
REMARK   52  A    between atoms: _117  and  _118
REMARK   53  A    between atoms: _117  and  _120
REMARK   54  A    between atoms: _120  and  _121
REMARK   55  A    between atoms: _124  and  _126
REMARK   56  A    between atoms: _126  and  _127
REMARK   57  A    between atoms: _126  and  _129
REMARK   58  A    between atoms: _129  and  _130
REMARK   59  A    between atoms: _130  and  _131
REMARK   60  A    between atoms: _136  and  _138
REMARK   61  A    between atoms: _138  and  _139
REMARK   62  A    between atoms: _138  and  _141
REMARK   63  A    between atoms: _141  and  _142
REMARK   64  A    between atoms: _145  and  _147
REMARK   65  A    between atoms: _147  and  _148
REMARK   66  A    between atoms: _147  and  _150
REMARK   67  A    between atoms: _150  and  _151
REMARK   68  A    between atoms: _154  and  _156
REMARK   69  A    between atoms: _156  and  _157
REMARK   70  A    between atoms: _156  and  _159
REMARK   71  A    between atoms: _159  and  _160
REMARK   72  A    between atoms: _166  and  _168
REMARK   73  A    between atoms: _168  and  _169
REMARK   74  A    between atoms: _168  and  _171
REMARK   75  A    between atoms: _171  and  _172
REMARK   76  A    between atoms: _172  and  _173
REMARK   77  A    between atoms: _178  and  _180
REMARK   78  A    between atoms: _180  and  _181
REMARK   79  A    between atoms: _183  and  _185
REMARK   80  A    between atoms: _185  and  _186
REMARK   81  A    between atoms: _185  and  _188
REMARK   82  A    between atoms: _188  and  _189
REMARK   83  A    between atoms: _194  and  _195
REMARK   84  A    between atoms: _197  and  _199
REMARK   85  A    between atoms: _199  and  _200
REMARK   86  A    between atoms: _199  and  _202
REMARK   87  A    between atoms: _202  and  _203
REMARK   88  A    between atoms: _208  and  _209
REMARK   89  A    between atoms: _211  and  _213
REMARK   90  A    between atoms: _213  and  _214
REMARK   91  A    between atoms: _213  and  _216
REMARK   92  A    between atoms: _216  and  _217
REMARK   93  A    between atoms: _217  and  _218
REMARK   94  A    between atoms: _218  and  _219
REMARK   95  A    between atoms: _219  and  _220
REMARK   96  A    between atoms: _224  and  _226
REMARK   97  A    between atoms: _226  and  _227
REMARK   98  A    between atoms: _226  and  _229
REMARK   99  A    between atoms: _229  and  _230
REMARK  100  A    between atoms: _233  and  _235
REMARK  101  A    between atoms: _235  and  _236
REMARK  102  A    between atoms: _239  and  _241
REMARK  103  A    between atoms: _241  and  _242
REMARK  104  A    between atoms: _241  and  _244
REMARK  105  A    between atoms: _244  and  _245
REMARK  106  A    between atoms: _245  and  _246
REMARK  107  A    between atoms: _246  and  _247
REMARK  108  A    between atoms: _256  and  _258
REMARK  109  A    between atoms: _258  and  _259
REMARK  110  A    between atoms: _258  and  _261
REMARK  111  A    between atoms: _261  and  _262
REMARK  112  A    between atoms: _267  and  _269
REMARK  113  A    between atoms: _269  and  _270
REMARK  114  A    between atoms: _269  and  _272
REMARK  115  A    between atoms: _272  and  _273
REMARK  116  A    between atoms: _278  and  _279
REMARK  117  A    between atoms: _281  and  _283
REMARK  118  A    between atoms: _283  and  _284
REMARK  119  A    between atoms: _287  and  _289
REMARK  120  A    between atoms: _289  and  _290
REMARK  121  A    between atoms: _289  and  _292
REMARK  122  A    between atoms: _295  and  _297
REMARK  123  A    between atoms: _297  and  _298
REMARK  124  A    between atoms: _297  and  _300
REMARK  125  A    between atoms: _303  and  _305
REMARK  126  A    between atoms: _305  and  _306
REMARK  127  A    between atoms: _305  and  _308
REMARK  128  A    between atoms: _308  and  _309
REMARK  129  A    between atoms: _309  and  _310
REMARK  130  A    between atoms: _313  and  _315
REMARK  131  A    between atoms: _315  and  _316
REMARK  132  A    between atoms: _315  and  _318
REMARK  133  A    between atoms: _318  and  _319
REMARK  134  A    between atoms: _322  and  _324
REMARK  135  A    between atoms: _324  and  _325
REMARK  136  A    between atoms: _324  and  _327
REMARK  137  A    between atoms: _327  and  _328
REMARK  138  A    between atoms: _328  and  _330
REMARK  139  A    between atoms: _330  and  MN_635
REMARK  140  A    between atoms: _331  and  _333
REMARK  141  A    between atoms: _333  and  _334
REMARK  142  A    between atoms: _333  and  _336
REMARK  143  A    between atoms: _336  and  _337
REMARK  144  A    between atoms: _340  and  _342
REMARK  145  A    between atoms: _342  and  _343
REMARK  146  A    between atoms: _342  and  _345
REMARK  147  A    between atoms: _345  and  _346
REMARK  148  A    between atoms: _353  and  _354
REMARK  149  A    between atoms: _359  and  _361
REMARK  150  A    between atoms: _361  and  _362
REMARK  151  A    between atoms: _364  and  _366
REMARK  152  A    between atoms: _366  and  _367
REMARK  153  A    between atoms: _366  and  _369
REMARK  154  A    between atoms: _369  and  _370
REMARK  155  A    between atoms: _373  and  _375
REMARK  156  A    between atoms: _375  and  _376
REMARK  157  A    between atoms: _378  and  _380
REMARK  158  A    between atoms: _380  and  _381
REMARK  159  A    between atoms: _380  and  _383
REMARK  160  A    between atoms: _383  and  _384
REMARK  161  A    between atoms: _394  and  _396
REMARK  162  A    between atoms: _396  and  _397
REMARK  163  A    between atoms: _400  and  _402
REMARK  164  A    between atoms: _402  and  _403
REMARK  165  A    between atoms: _402  and  _405
REMARK  166  A    between atoms: _405  and  _406
REMARK  167  A    between atoms: _412  and  _414
REMARK  168  A    between atoms: _414  and  _415
REMARK  169  A    between atoms: _414  and  _417
REMARK  170  A    between atoms: _417  and  _418
REMARK  171  A    between atoms: _428  and  _430
REMARK  172  A    between atoms: _430  and  _431
REMARK  173  A    between atoms: _430  and  _433
REMARK  174  A    between atoms: _433  and  _434
REMARK  175  A    between atoms: _437  and  _439
REMARK  176  A    between atoms: _439  and  _440
REMARK  177  A    between atoms: _439  and  _442
REMARK  178  A    between atoms: _442  and  _443
REMARK  179  A    between atoms: _446  and  _448
REMARK  180  A    between atoms: _448  and  _449
REMARK  181  A    between atoms: _448  and  _451
REMARK  182  A    between atoms: _451  and  _452
REMARK  183  A    between atoms: _462  and  _464
REMARK  184  A    between atoms: _464  and  _465
REMARK  185  A    between atoms: _464  and  _467
REMARK  186  A    between atoms: _467  and  _468
REMARK  187  A    between atoms: _468  and  _469
REMARK  188  A    between atoms: _469  and  _470
REMARK  189  A    between atoms: _479  and  _481
REMARK  190  A    between atoms: _481  and  _482
REMARK  191  A    between atoms: _481  and  _484
REMARK  192  A    between atoms: _484  and  _485
REMARK  193  A    between atoms: _488  and  _490
REMARK  194  A    between atoms: _490  and  _491
REMARK  195  A    between atoms: _490  and  _493
REMARK  196  A    between atoms: _493  and  _494
REMARK  197  A    between atoms: _500  and  _502
REMARK  198  A    between atoms: _502  and  _503
REMARK  199  A    between atoms: _505  and  _507
REMARK  200  A    between atoms: _507  and  _508
REMARK  201  A    between atoms: _507  and  _510
REMARK  202  A    between atoms: _510  and  _511
REMARK  203  A    between atoms: _511  and  _512
REMARK  204  A    between atoms: _512  and  _513
REMARK  205  A    between atoms: _522  and  _524
REMARK  206  A    between atoms: _524  and  _525
REMARK  207  A    between atoms: _524  and  _527
REMARK  208  A    between atoms: _527  and  _528
REMARK  209  A    between atoms: _528  and  _529
REMARK  210  A    between atoms: _529  and  _530
REMARK  211  A    between atoms: _530  and  _531
REMARK  212  A    between atoms: _535  and  _537
REMARK  213  A    between atoms: _537  and  _538
REMARK  214  A    between atoms: _540  and  _542
REMARK  215  A    between atoms: _542  and  _543
REMARK  216  A    between atoms: _542  and  _545
REMARK  217  A    between atoms: _548  and  _550
REMARK  218  A    between atoms: _550  and  _551
REMARK  219  A    between atoms: _550  and  _553
REMARK  220  A    between atoms: _553  and  _554
REMARK  221  A    between atoms: _556  and  _558
REMARK  222  A    between atoms: _558  and  _559
REMARK  223  A    between atoms: _558  and  _561
REMARK  224  A    between atoms: _561  and  _562
REMARK  225  A    between atoms: _567  and  _569
REMARK  226  A    between atoms: _569  and  _570
REMARK  227  A    between atoms: _572  and  _574
REMARK  228  A    between atoms: _574  and  _575
REMARK  229  A    between atoms: _574  and  _577
REMARK  230  A    between atoms: _577  and  _578
REMARK  231  A    between atoms: _584  and  _586
REMARK  232  A    between atoms: _586  and  _587
REMARK  233  A    between atoms: _586  and  _589
REMARK  234  A    between atoms: _589  and  _590
REMARK  235  A    between atoms: _596  and  _598
REMARK  236  A    between atoms: _598  and  _599
REMARK  237  A    between atoms: _598  and  _601
REMARK  238  A    between atoms: _601  and  _602
REMARK  239  A    between atoms: _605  and  _607
REMARK  240  A    between atoms: _607  and  _608
REMARK  241  A    between atoms: _607  and  _610
REMARK  242  A    between atoms: _610  and  _611
REMARK  243  A    between atoms: _611  and  _612
REMARK  244  A    between atoms: _612  and  _613
REMARK  245  A    between atoms: _613  and  _614
REMARK  246  A    between atoms: _618  and  _620
REMARK  247  A    between atoms: _620  and  _621
REMARK  248  A    between atoms: _620  and  _623
REMARK  249  A    between atoms: _623  and  _624
REMARK  250  A    between atoms: _624  and  _625
REMARK  251  A    between atoms: _625  and  _626
REMARK                            x       y       z     vdW  Elec       q    Type
REMARK                         _______ _______ _______ _____ _____    ______ ____
ROOT
ATOM      1  CA  LYS A   6      -3.919  25.471   7.047  0.00  0.00    +0.149 C 
ENDROOT
BRANCH   1   4
ATOM      2  C   TYR A   5      -4.328  26.874   8.982  0.00  0.00    +0.241 C 
ATOM      3  O   TYR A   5      -5.476  26.416   9.092  0.00  0.00    -0.273 OA
ATOM      4  N   LYS A   6      -3.498  26.485   8.015  0.00  0.00    -0.297 N 
ATOM      5  H   LYS A   6      -2.548  26.903   7.948  0.00  0.00    +0.150 HD
BRANCH   2   6
ATOM      6  CA  TYR A   5      -3.801  27.931   9.959  0.00  0.00    +0.153 C 
BRANCH   6   9
ATOM      7  C   TYR A   4      -2.035  26.587  10.948  0.00  0.00    +0.241 C 
ATOM      8  O   TYR A   4      -2.858  25.814  11.455  0.00  0.00    -0.273 OA
ATOM      9  N   TYR A   5      -2.395  27.655  10.239  0.00  0.00    -0.297 N 
ATOM     10  H   TYR A   5      -1.664  28.302   9.880  0.00  0.00    +0.150 HD
BRANCH   7  11
ATOM     11  CA  TYR A   4      -0.533  26.360  11.130  0.00  0.00    +0.153 C 
BRANCH  11  13
ATOM     12  C   GLY A   3       0.090  26.164   8.788  0.00  0.00    +0.243 C 
ATOM     13  N   TYR A   4       0.199  26.808   9.946  0.00  0.00    -0.297 N 
ATOM     14  H   TYR A   4       0.815  27.644  10.011  0.00  0.00    +0.150 HD
ATOM     15  O   GLY A   3      -0.598  25.150   8.655  0.00  0.00    -0.273 OA
BRANCH  12  16
ATOM     16  CA  GLY A   3       0.889  26.716   7.612  0.00  0.00    +0.176 C 
BRANCH  16  18
ATOM     17  C   GLN A   2      -0.090  28.915   7.563  0.00  0.00    +0.241 C 
ATOM     18  N   GLY A   3       1.002  28.166   7.602  0.00  0.00    -0.295 N 
ATOM     19  H   GLY A   3       1.940  28.615   7.625  0.00  0.00    +0.150 HD
ATOM     20  O   GLN A   2      -1.229  28.421   7.535  0.00  0.00    -0.273 OA
BRANCH  17  21
ATOM     21  CA  GLN A   2       0.123  30.441   7.550  0.00  0.00    +0.149 C 
BRANCH  21  24
ATOM     22  C   PHE A   1       1.188  30.519   9.755  0.00  0.00    +0.239 C 
ATOM     23  O   PHE A   1       0.330  29.779  10.246  0.00  0.00    -0.274 OA
ATOM     24  N   GLN A   2       1.173  30.888   8.476  0.00  0.00    -0.297 N 
ATOM     25  H   GLN A   2       1.927  31.511   8.122  0.00  0.00    +0.150 HD
BRANCH  22  26
ATOM     26  CA  PHE A   1       2.329  31.035  10.626  0.00  0.00    +0.149 C 
BRANCH  26  27
ATOM     27  N   PHE A   1       3.011  32.278  10.291  0.00  0.00    -0.238 NA
ATOM     28  H   PHE A   1       2.497  33.181  10.342  0.00  0.00    +0.142 HD
ENDBRANCH  26  27
BRANCH  26  29
ATOM     29  CB  PHE A   1       1.856  31.135  12.085  0.00  0.00    +0.053 C 
BRANCH  29  30
ATOM     30  CG  PHE A   1       2.964  31.438  13.057  0.00  0.00    -0.020 A 
ATOM     31  CD2 PHE A   1       3.793  30.421  13.528  0.00  0.00    -0.004 A 
ATOM     32  CE2 PHE A   1       4.861  30.701  14.387  0.00  0.00    -0.000 A 
ATOM     33  CZ  PHE A   1       5.105  32.012  14.786  0.00  0.00    -0.000 A 
ATOM     34  CE1 PHE A   1       4.284  33.033  14.326  0.00  0.00    -0.000 A 
ATOM     35  CD1 PHE A   1       3.216  32.742  13.466  0.00  0.00    -0.004 A 
ENDBRANCH  29  30
ENDBRANCH  26  29
ENDBRANCH  22  26
ENDBRANCH  21  24
BRANCH  21  36
ATOM     36  CB  GLN A   2       0.472  30.893   6.126  0.00  0.00    +0.039 C 
BRANCH  36  37
ATOM     37  CG  GLN A   2      -0.409  30.290   5.032  0.00  0.00    +0.087 C 
BRANCH  37  38
ATOM     38  CD  GLN A   2      -1.732  31.019   4.872  0.00  0.00    +0.219 C 
ATOM     39  NE2 GLN A   2      -1.819  32.219   5.426  0.00  0.00    -0.329 N 
ATOM     40 HE21 GLN A   2      -1.009  32.611   5.948  0.00  0.00    +0.145 HD
ATOM     41 HE22 GLN A   2      -2.697  32.770   5.339  0.00  0.00    +0.145 HD
ATOM     42  OE1 GLN A   2      -2.662  30.510   4.243  0.00  0.00    -0.275 OA
ENDBRANCH  37  38
ENDBRANCH  36  37
ENDBRANCH  21  36
ENDBRANCH  17  21
ENDBRANCH  16  18
ENDBRANCH  12  16
ENDBRANCH  11  13
BRANCH  11  43
ATOM     43  CB  TYR A   4      -0.036  27.093  12.380  0.00  0.00    +0.055 C 
BRANCH  43  44
ATOM     44  CG  TYR A   4       1.400  26.792  12.734  0.00  0.00    -0.020 A 
ATOM     45  CD2 TYR A   4       1.705  25.928  13.780  0.00  0.00    -0.001 A 
ATOM     46  CE2 TYR A   4       3.029  25.663  14.128  0.00  0.00    +0.036 A 
ATOM     47  CZ  TYR A   4       4.060  26.265  13.416  0.00  0.00    +0.134 A 
ATOM     48  CE1 TYR A   4       3.782  27.120  12.375  0.00  0.00    +0.036 A 
ATOM     49  CD1 TYR A   4       2.456  27.383  12.035  0.00  0.00    -0.001 A 
BRANCH  47  50
ATOM     50  OH  TYR A   4       5.372  26.001  13.744  0.00  0.00    -0.506 OA
ATOM     51  HH  TYR A   4       5.970  26.509  13.141  0.00  0.00    +0.292 HD
ENDBRANCH  47  50
ENDBRANCH  43  44
ENDBRANCH  11  43
ENDBRANCH   7  11
ENDBRANCH   6   9
BRANCH   6  52
ATOM     52  CB  TYR A   5      -3.980  29.320   9.331  0.00  0.00    +0.055 C 
BRANCH  52  53
ATOM     53  CG  TYR A   5      -3.996  30.485  10.300  0.00  0.00    -0.020 A 
ATOM     54  CD2 TYR A   5      -2.844  30.865  10.990  0.00  0.00    -0.001 A 
ATOM     55  CE2 TYR A   5      -2.846  31.960  11.842  0.00  0.00    +0.036 A 
ATOM     56  CZ  TYR A   5      -4.011  32.694  12.013  0.00  0.00    +0.134 A 
ATOM     57  CE1 TYR A   5      -5.167  32.341  11.350  0.00  0.00    +0.036 A 
ATOM     58  CD1 TYR A   5      -5.155  31.233  10.492  0.00  0.00    -0.001 A 
BRANCH  56  59
ATOM     59  OH  TYR A   5      -4.002  33.786  12.843  0.00  0.00    -0.506 OA
ATOM     60  HH  TYR A   5      -3.099  33.894  13.234  0.00  0.00    +0.292 HD
ENDBRANCH  56  59
ENDBRANCH  52  53
ENDBRANCH   6  52
ENDBRANCH   2   6
ENDBRANCH   1   4
BRANCH   1  61
ATOM     61  C   LYS A   6      -4.104  24.114   7.728  0.00  0.00    +0.241 C 
ATOM     62  N   ILE A   7      -3.220  23.786   8.665  0.00  0.00    -0.297 N 
ATOM     63  H   ILE A   7      -2.431  24.427   8.883  0.00  0.00    +0.150 HD
ATOM     64  O   LYS A   6      -5.048  23.383   7.418  0.00  0.00    -0.273 OA
BRANCH  62  65
ATOM     65  CA  ILE A   7      -3.358  22.521   9.390  0.00  0.00    +0.149 C 
BRANCH  65  66
ATOM     66  C   ILE A   7      -4.710  22.487  10.119  0.00  0.00    +0.241 C 
ATOM     67  N   ALA A   8      -5.023  23.567  10.836  0.00  0.00    -0.297 N 
ATOM     68  H   ALA A   8      -4.366  24.373  10.856  0.00  0.00    +0.150 HD
ATOM     69  O   ILE A   7      -5.464  21.505  10.023  0.00  0.00    -0.273 OA
BRANCH  67  70
ATOM     70  CA  ALA A   8      -6.266  23.641  11.592  0.00  0.00    +0.149 C 
ATOM     71  CB  ALA A   8      -6.319  24.944  12.397  0.00  0.00    +0.031 C 
BRANCH  70  72
ATOM     72  C   ALA A   8      -7.486  23.518  10.689  0.00  0.00    +0.241 C 
ATOM     73  O   ALA A   8      -8.446  22.826  11.029  0.00  0.00    -0.273 OA
ATOM     74  N   ARG A   9      -7.453  24.180   9.537  0.00  0.00    -0.297 N 
ATOM     75  H   ARG A   9      -6.624  24.763   9.304  0.00  0.00    +0.150 HD
BRANCH  74  76
ATOM     76  CA  ARG A   9      -8.571  24.099   8.590  0.00  0.00    +0.149 C 
BRANCH  76  77
ATOM     77  C   ARG A   9      -8.763  22.673   8.081  0.00  0.00    +0.241 C 
ATOM     78  O   ARG A   9      -9.889  22.183   7.994  0.00  0.00    -0.273 OA
ATOM     79  N   HIS A  10      -7.661  22.002   7.752  0.00  0.00    -0.297 N 
ATOM     80  H   HIS A  10      -6.731  22.458   7.848  0.00  0.00    +0.150 HD
BRANCH  79  81
ATOM     81  CA  HIS A  10      -7.747  20.631   7.258  0.00  0.00    +0.155 C 
BRANCH  81  82
ATOM     82  C   HIS A  10      -8.298  19.687   8.332  0.00  0.00    +0.241 C 
ATOM     83  N   TYR A  11      -7.821  19.824   9.569  0.00  0.00    -0.298 N 
ATOM     84  H   TYR A  11      -7.095  20.542   9.767  0.00  0.00    +0.150 HD
ATOM     85  O   HIS A  10      -9.137  18.837   8.037  0.00  0.00    -0.273 OA
BRANCH  83  86
ATOM     86  CA  TYR A  11      -8.316  18.967  10.652  0.00  0.00    +0.141 C 
BRANCH  86  87
ATOM     87  C   TYR A  11      -9.836  19.113  10.789  0.00  0.00    +0.227 C 
ATOM     88  O   TYR A  11     -10.561  18.121  10.908  0.00  0.00    -0.286 OA
ENDBRANCH  86  87
BRANCH  86  89
ATOM     89  CB  TYR A  11      -7.643  19.328  11.988  0.00  0.00    +0.054 C 
BRANCH  89  90
ATOM     90  CG  TYR A  11      -6.474  18.449  12.351  0.00  0.00    -0.020 A 
ATOM     91  CD2 TYR A  11      -6.565  17.550  13.405  0.00  0.00    -0.001 A 
ATOM     92  CE2 TYR A  11      -5.494  16.715  13.732  0.00  0.00    +0.036 A 
ATOM     93  CZ  TYR A  11      -4.322  16.778  13.000  0.00  0.00    +0.134 A 
ATOM     94  CE1 TYR A  11      -4.204  17.659  11.950  0.00  0.00    +0.036 A 
ATOM     95  CD1 TYR A  11      -5.286  18.500  11.630  0.00  0.00    -0.001 A 
BRANCH  93  96
ATOM     96  OH  TYR A  11      -3.251  15.957  13.332  0.00  0.00    -0.506 OA
ATOM     97  HH  TYR A  11      -2.499  16.130  12.711  0.00  0.00    +0.292 HD
ENDBRANCH  93  96
ENDBRANCH  89  90
ENDBRANCH  86  89
ENDBRANCH  83  86
ENDBRANCH  81  82
BRANCH  81  98
ATOM     98  CB  HIS A  10      -6.376  20.123   6.795  0.00  0.00    +0.076 C 
BRANCH  98  99
ATOM     99  CG  HIS A  10      -6.432  18.805   6.086  0.00  0.00    +0.082 A 
ATOM    100  ND1 HIS A  10      -5.311  18.041   5.847  0.00  0.00    -0.227 NA
ATOM    101  CE1 HIS A  10      -5.659  16.944   5.193  0.00  0.00    +0.199 A 
ATOM    102  NE2 HIS A  10      -6.964  16.969   5.002  0.00  0.00    -0.221 NA
ATOM    103  CD2 HIS A  10      -7.474  18.122   5.552  0.00  0.00    +0.115 A 
ENDBRANCH  98  99
ENDBRANCH  81  98
ENDBRANCH  79  81
ENDBRANCH  76  77
BRANCH  76 104
ATOM    104  CB  ARG A   9      -8.345  25.034   7.389  0.00  0.00    +0.033 C 
BRANCH 104 105
ATOM    105  CG  ARG A   9      -9.368  24.811   6.270  0.00  0.00    +0.045 C 
BRANCH 105 106
ATOM    106  CD  ARG A   9      -9.230  25.845   5.157  0.00  0.00    +0.174 C 
BRANCH 106 107
ATOM    107  NE  ARG A   9      -7.973  25.714   4.432  0.00  0.00    -0.265 N 
ATOM    108  HE  ARG A   9      -7.346  24.922   4.678  0.00  0.00    +0.259 HD
ATOM    109  CZ  ARG A   9      -7.581  26.549   3.474  0.00  0.00    +0.342 C 
ATOM    110  NH2 ARG A   9      -8.360  27.578   3.131  0.00  0.00    -0.292 N 
ATOM    111 HH21 ARG A   9      -9.270  27.724   3.613  0.00  0.00    +0.255 HD
ATOM    112 HH22 ARG A   9      -8.057  28.233   2.382  0.00  0.00    +0.255 HD
ATOM    113  NH1 ARG A   9      -6.424  26.345   2.854  0.00  0.00    -0.292 N 
ATOM    114 HH11 ARG A   9      -5.828  25.535   3.118  0.00  0.00    +0.255 HD
ATOM    115 HH12 ARG A   9      -6.114  26.996   2.104  0.00  0.00    +0.255 HD
ENDBRANCH 106 107
ENDBRANCH 105 106
ENDBRANCH 104 105
ENDBRANCH  76 104
ENDBRANCH  74  76
ENDBRANCH  70  72
ENDBRANCH  67  70
ENDBRANCH  65  66
BRANCH  65 116
ATOM    116  CB  ILE A   7      -2.237  22.334  10.443  0.00  0.00    +0.027 C 
ATOM    117  CG2 ILE A   7      -2.611  21.197  11.400  0.00  0.00    +0.002 C 
BRANCH 116 118
ATOM    118  CG1 ILE A   7      -0.900  22.037   9.752  0.00  0.00    +0.002 C 
ATOM    119  CD1 ILE A   7       0.300  22.051  10.698  0.00  0.00    +0.000 C 
ENDBRANCH 116 118
ENDBRANCH  65 116
ENDBRANCH  62  65
ENDBRANCH   1  61
BRANCH   1 120
ATOM    120  CB  LYS A   6      -2.903  25.381   5.913  0.00  0.00    +0.029 C 
BRANCH 120 121
ATOM    121  CG  LYS A   6      -2.998  26.600   4.975  0.00  0.00    +0.000 C 
BRANCH 121 122
ATOM    122  CD  LYS A   6      -2.028  26.540   3.815  0.00  0.00    -0.024 C 
BRANCH 122 123
ATOM    123  CE  LYS A   6      -2.246  27.725   2.883  0.00  0.00    -0.086 C 
BRANCH 123 124
ATOM    124  NZ  LYS A   6      -1.336  27.678   1.709  0.00  0.00    +0.380 N 
ATOM    125  HZ1 LYS A   6      -0.349  27.696   2.036  0.00  0.00    -0.089 HD
ATOM    126  HZ2 LYS A   6      -1.509  26.804   1.173  0.00  0.00    -0.089 HD
ATOM    127  HZ3 LYS A   6      -1.516  28.501   1.099  0.00  0.00    -0.089 HD
ENDBRANCH 123 124
ENDBRANCH 122 123
ENDBRANCH 121 122
ENDBRANCH 120 121
ENDBRANCH   1 120
TORSDOF 49
REMARK  Name = ../refined-set-2016/2am4/2am4_pocket.pdb
REMARK  251 active torsions:
REMARK  status: ('A' for Active; 'I' for Inactive)
REMARK    1  A    between atoms: _1  and  _3
REMARK    2  A    between atoms: _3  and  _4
REMARK    3  A    between atoms: _3  and  _6
REMARK    4  A    between atoms: _6  and  _7
REMARK    5  A    between atoms: _10  and  _12
REMARK    6  A    between atoms: _12  and  _13
REMARK    7  A    between atoms: _12  and  _15
REMARK    8  A    between atoms: _18  and  _20
REMARK    9  A    between atoms: _20  and  _21
REMARK   10  A    between atoms: _20  and  _23
REMARK   11  A    between atoms: _23  and  _24
REMARK   12  A    between atoms: _27  and  _29
REMARK   13  A    between atoms: _29  and  _30
REMARK   14  A    between atoms: _33  and  _35
REMARK   15  A    between atoms: _35  and  _36
REMARK   16  A    between atoms: _35  and  _38
REMARK   17  A    between atoms: _38  and  _39
REMARK   18  A    between atoms: _39  and  _109
REMARK   19  A    between atoms: _40  and  _42
REMARK   20  A    between atoms: _42  and  _43
REMARK   21  A    between atoms: _42  and  _45
REMARK   22  A    between atoms: _45  and  _46
REMARK   23  A    between atoms: _49  and  _51
REMARK   24  A    between atoms: _51  and  _52
REMARK   25  A    between atoms: _51  and  _54
REMARK   26  A    between atoms: _54  and  _55
REMARK   27  A    between atoms: _55  and  _56
REMARK   28  A    between atoms: _56  and  _57
REMARK   29  A    between atoms: _66  and  _68
REMARK   30  A    between atoms: _68  and  _69
REMARK   31  A    between atoms: _68  and  _71
REMARK   32  A    between atoms: _74  and  _76
REMARK   33  A    between atoms: _76  and  _77
REMARK   34  A    between atoms: _76  and  _79
REMARK   35  A    between atoms: _79  and  _80
REMARK   36  A    between atoms: _82  and  _84
REMARK   37  A    between atoms: _84  and  _85
REMARK   38  A    between atoms: _84  and  _87
REMARK   39  A    between atoms: _87  and  _88
REMARK   40  A    between atoms: _88  and  _89
REMARK   41  A    between atoms: _94  and  _96
REMARK   42  A    between atoms: _96  and  _97
REMARK   43  A    between atoms: _96  and  _99
REMARK   44  A    between atoms: _99  and  _100
REMARK   45  A    between atoms: _103  and  _105
REMARK   46  A    between atoms: _105  and  _106
REMARK   47  A    between atoms: _105  and  _108
REMARK   48  A    between atoms: _108  and  _109
REMARK   49  A    between atoms: _110  and  _112
REMARK   50  A    between atoms: _112  and  _113
REMARK   51  A    between atoms: _115  and  _117
REMARK   52  A    between atoms: _117  and  _118
REMARK   53  A    between atoms: _117  and  _120
REMARK   54  A    between atoms: _120  and  _121
REMARK   55  A    between atoms: _124  and  _126
REMARK   56  A    between atoms: _126  and  _127
REMARK   57  A    between atoms: _126  and  _129
REMARK   58  A    between atoms: _129  and  _130
REMARK   59  A    between atoms: _130  and  _131
REMARK   60  A    between atoms: _136  and  _138
REMARK   61  A    between atoms: _138  and  _139
REMARK   62  A    between atoms: _138  and  _141
REMARK   63  A    between atoms: _141  and  _142
REMARK   64  A    between atoms: _145  and  _147
REMARK   65  A    between atoms: _147  and  _148
REMARK   66  A    between atoms: _147  and  _150
REMARK   67  A    between atoms: _150  and  _151
REMARK   68  A    between atoms: _154  and  _156
REMARK   69  A    between atoms: _156  and  _157
REMARK   70  A    between atoms: _156  and  _159
REMARK   71  A    between atoms: _159  and  _160
REMARK   72  A    between atoms: _166  and  _168
REMARK   73  A    between atoms: _168  and  _169
REMARK   74  A    between atoms: _168  and  _171
REMARK   75  A    between atoms: _171  and  _172
REMARK   76  A    between atoms: _172  and  _173
REMARK   77  A    between atoms: _178  and  _180
REMARK   78  A    between atoms: _180  and  _181
REMARK   79  A    between atoms: _183  and  _185
REMARK   80  A    between atoms: _185  and  _186
REMARK   81  A    between atoms: _185  and  _188
REMARK   82  A    between atoms: _188  and  _189
REMARK   83  A    between atoms: _194  and  _195
REMARK   84  A    between atoms: _197  and  _199
REMARK   85  A    between atoms: _199  and  _200
REMARK   86  A    between atoms: _199  and  _202
REMARK   87  A    between atoms: _202  and  _203
REMARK   88  A    between atoms: _208  and  _209
REMARK   89  A    between atoms: _211  and  _213
REMARK   90  A    between atoms: _213  and  _214
REMARK   91  A    between atoms: _213  and  _216
REMARK   92  A    between atoms: _216  and  _217
REMARK   93  A    between atoms: _217  and  _218
REMARK   94  A    between atoms: _218  and  _219
REMARK   95  A    between atoms: _219  and  _220
REMARK   96  A    between atoms: _224  and  _226
REMARK   97  A    between atoms: _226  and  _227
REMARK   98  A    between atoms: _226  and  _229
REMARK   99  A    between atoms: _229  and  _230
REMARK  100  A    between atoms: _233  and  _235
REMARK  101  A    between atoms: _235  and  _236
REMARK  102  A    between atoms: _239  and  _241
REMARK  103  A    between atoms: _241  and  _242
REMARK  104  A    between atoms: _241  and  _244
REMARK  105  A    between atoms: _244  and  _245
REMARK  106  A    between atoms: _245  and  _246
REMARK  107  A    between atoms: _246  and  _247
REMARK  108  A    between atoms: _256  and  _258
REMARK  109  A    between atoms: _258  and  _259
REMARK  110  A    between atoms: _258  and  _261
REMARK  111  A    between atoms: _261  and  _262
REMARK  112  A    between atoms: _267  and  _269
REMARK  113  A    between atoms: _269  and  _270
REMARK  114  A    between atoms: _269  and  _272
REMARK  115  A    between atoms: _272  and  _273
REMARK  116  A    between atoms: _278  and  _279
REMARK  117  A    between atoms: _281  and  _283
REMARK  118  A    between atoms: _283  and  _284
REMARK  119  A    between atoms: _287  and  _289
REMARK  120  A    between atoms: _289  and  _290
REMARK  121  A    between atoms: _289  and  _292
REMARK  122  A    between atoms: _295  and  _297
REMARK  123  A    between atoms: _297  and  _298
REMARK  124  A    between atoms: _297  and  _300
REMARK  125  A    between atoms: _303  and  _305
REMARK  126  A    between atoms: _305  and  _306
REMARK  127  A    between atoms: _305  and  _308
REMARK  128  A    between atoms: _308  and  _309
REMARK  129  A    between atoms: _309  and  _310
REMARK  130  A    between atoms: _313  and  _315
REMARK  131  A    between atoms: _315  and  _316
REMARK  132  A    between atoms: _315  and  _318
REMARK  133  A    between atoms: _318  and  _319
REMARK  134  A    between atoms: _322  and  _324
REMARK  135  A    between atoms: _324  and  _325
REMARK  136  A    between atoms: _324  and  _327
REMARK  137  A    between atoms: _327  and  _328
REMARK  138  A    between atoms: _328  and  _330
REMARK  139  A    between atoms: _330  and  MN_635
REMARK  140  A    between atoms: _331  and  _333
REMARK  141  A    between atoms: _333  and  _334
REMARK  142  A    between atoms: _333  and  _336
REMARK  143  A    between atoms: _336  and  _337
REMARK  144  A    between atoms: _340  and  _342
REMARK  145  A    between atoms: _342  and  _343
REMARK  146  A    between atoms: _342  and  _345
REMARK  147  A    between atoms: _345  and  _346
REMARK  148  A    between atoms: _353  and  _354
REMARK  149  A    between atoms: _359  and  _361
REMARK  150  A    between atoms: _361  and  _362
REMARK  151  A    between atoms: _364  and  _366
REMARK  152  A    between atoms: _366  and  _367
REMARK  153  A    between atoms: _366  and  _369
REMARK  154  A    between atoms: _369  and  _370
REMARK  155  A    between atoms: _373  and  _375
REMARK  156  A    between atoms: _375  and  _376
REMARK  157  A    between atoms: _378  and  _380
REMARK  158  A    between atoms: _380  and  _381
REMARK  159  A    between atoms: _380  and  _383
REMARK  160  A    between atoms: _383  and  _384
REMARK  161  A    between atoms: _394  and  _396
REMARK  162  A    between atoms: _396  and  _397
REMARK  163  A    between atoms: _400  and  _402
REMARK  164  A    between atoms: _402  and  _403
REMARK  165  A    between atoms: _402  and  _405
REMARK  166  A    between atoms: _405  and  _406
REMARK  167  A    between atoms: _412  and  _414
REMARK  168  A    between atoms: _414  and  _415
REMARK  169  A    between atoms: _414  and  _417
REMARK  170  A    between atoms: _417  and  _418
REMARK  171  A    between atoms: _428  and  _430
REMARK  172  A    between atoms: _430  and  _431
REMARK  173  A    between atoms: _430  and  _433
REMARK  174  A    between atoms: _433  and  _434
REMARK  175  A    between atoms: _437  and  _439
REMARK  176  A    between atoms: _439  and  _440
REMARK  177  A    between atoms: _439  and  _442
REMARK  178  A    between atoms: _442  and  _443
REMARK  179  A    between atoms: _446  and  _448
REMARK  180  A    between atoms: _448  and  _449
REMARK  181  A    between atoms: _448  and  _451
REMARK  182  A    between atoms: _451  and  _452
REMARK  183  A    between atoms: _462  and  _464
REMARK  184  A    between atoms: _464  and  _465
REMARK  185  A    between atoms: _464  and  _467
REMARK  186  A    between atoms: _467  and  _468
REMARK  187  A    between atoms: _468  and  _469
REMARK  188  A    between atoms: _469  and  _470
REMARK  189  A    between atoms: _479  and  _481
REMARK  190  A    between atoms: _481  and  _482
REMARK  191  A    between atoms: _481  and  _484
REMARK  192  A    between atoms: _484  and  _485
REMARK  193  A    between atoms: _488  and  _490
REMARK  194  A    between atoms: _490  and  _491
REMARK  195  A    between atoms: _490  and  _493
REMARK  196  A    between atoms: _493  and  _494
REMARK  197  A    between atoms: _500  and  _502
REMARK  198  A    between atoms: _502  and  _503
REMARK  199  A    between atoms: _505  and  _507
REMARK  200  A    between atoms: _507  and  _508
REMARK  201  A    between atoms: _507  and  _510
REMARK  202  A    between atoms: _510  and  _511
REMARK  203  A    between atoms: _511  and  _512
REMARK  204  A    between atoms: _512  and  _513
REMARK  205  A    between atoms: _522  and  _524
REMARK  206  A    between atoms: _524  and  _525
REMARK  207  A    between atoms: _524  and  _527
REMARK  208  A    between atoms: _527  and  _528
REMARK  209  A    between atoms: _528  and  _529
REMARK  210  A    between atoms: _529  and  _530
REMARK  211  A    between atoms: _530  and  _531
REMARK  212  A    between atoms: _535  and  _537
REMARK  213  A    between atoms: _537  and  _538
REMARK  214  A    between atoms: _540  and  _542
REMARK  215  A    between atoms: _542  and  _543
REMARK  216  A    between atoms: _542  and  _545
REMARK  217  A    between atoms: _548  and  _550
REMARK  218  A    between atoms: _550  and  _551
REMARK  219  A    between atoms: _550  and  _553
REMARK  220  A    between atoms: _553  and  _554
REMARK  221  A    between atoms: _556  and  _558
REMARK  222  A    between atoms: _558  and  _559
REMARK  223  A    between atoms: _558  and  _561
REMARK  224  A    between atoms: _561  and  _562
REMARK  225  A    between atoms: _567  and  _569
REMARK  226  A    between atoms: _569  and  _570
REMARK  227  A    between atoms: _572  and  _574
REMARK  228  A    between atoms: _574  and  _575
REMARK  229  A    between atoms: _574  and  _577
REMARK  230  A    between atoms: _577  and  _578
REMARK  231  A    between atoms: _584  and  _586
REMARK  232  A    between atoms: _586  and  _587
REMARK  233  A    between atoms: _586  and  _589
REMARK  234  A    between atoms: _589  and  _590
REMARK  235  A    between atoms: _596  and  _598
REMARK  236  A    between atoms: _598  and  _599
REMARK  237  A    between atoms: _598  and  _601
REMARK  238  A    between atoms: _601  and  _602
REMARK  239  A    between atoms: _605  and  _607
REMARK  240  A    between atoms: _607  and  _608
REMARK  241  A    between atoms: _607  and  _610
REMARK  242  A    between atoms: _610  and  _611
REMARK  243  A    between atoms: _611  and  _612
REMARK  244  A    between atoms: _612  and  _613
REMARK  245  A    between atoms: _613  and  _614
REMARK  246  A    between atoms: _618  and  _620
REMARK  247  A    between atoms: _620  and  _621
REMARK  248  A    between atoms: _620  and  _623
REMARK  249  A    between atoms: _623  and  _624
REMARK  250  A    between atoms: _624  and  _625
REMARK  251  A    between atoms: _625  and  _626
REMARK                            x       y       z     vdW  Elec       q    Type
REMARK                         _______ _______ _______ _____ _____    ______ ____
ROOT
ATOM      1  CA  ALA A   1     -11.309  15.869   7.725  0.00  0.00    +0.133 C 
ATOM      2  CB  ALA A   1      -9.800  15.512   7.797  0.00  0.00    +0.027 C 
ENDROOT
BRANCH   1   3
ATOM      3  N   ALA A   1     -11.490  17.328   7.707  0.00  0.00    -0.239 NA
ATOM      4  H   ALA A   1     -10.675  17.949   7.884  0.00  0.00    +0.142 HD
ENDBRANCH   1   3
BRANCH   1   5
ATOM      5  C   ALA A   1     -12.077  15.179   8.846  0.00  0.00    +0.224 C 
ATOM      6  O   ALA A   1     -12.673  14.113   8.630  0.00  0.00    -0.287 OA
ENDBRANCH   1   5
TORSDOF 2
REMARK  Name = ../refined-set-2016/2am4/2am4_pocket.pdb
REMARK  251 active torsions:
REMARK  status: ('A' for Active; 'I' for Inactive)
REMARK    1  A    between atoms: _1  and  _3
REMARK    2  A    between atoms: _3  and  _4
REMARK    3  A    between atoms: _3  and  _6
REMARK    4  A    between atoms: _6  and  _7
REMARK    5  A    between atoms: _10  and  _12
REMARK    6  A    between atoms: _12  and  _13
REMARK    7  A    between atoms: _12  and  _15
REMARK    8  A    between atoms: _18  and  _20
REMARK    9  A    between atoms: _20  and  _21
REMARK   10  A    between atoms: _20  and  _23
REMARK   11  A    between atoms: _23  and  _24
REMARK   12  A    between atoms: _27  and  _29
REMARK   13  A    between atoms: _29  and  _30
REMARK   14  A    between atoms: _33  and  _35
REMARK   15  A    between atoms: _35  and  _36
REMARK   16  A    between atoms: _35  and  _38
REMARK   17  A    between atoms: _38  and  _39
REMARK   18  A    between atoms: _39  and  _109
REMARK   19  A    between atoms: _40  and  _42
REMARK   20  A    between atoms: _42  and  _43
REMARK   21  A    between atoms: _42  and  _45
REMARK   22  A    between atoms: _45  and  _46
REMARK   23  A    between atoms: _49  and  _51
REMARK   24  A    between atoms: _51  and  _52
REMARK   25  A    between atoms: _51  and  _54
REMARK   26  A    between atoms: _54  and  _55
REMARK   27  A    between atoms: _55  and  _56
REMARK   28  A    between atoms: _56  and  _57
REMARK   29  A    between atoms: _66  and  _68
REMARK   30  A    between atoms: _68  and  _69
REMARK   31  A    between atoms: _68  and  _71
REMARK   32  A    between atoms: _74  and  _76
REMARK   33  A    between atoms: _76  and  _77
REMARK   34  A    between atoms: _76  and  _79
REMARK   35  A    between atoms: _79  and  _80
REMARK   36  A    between atoms: _82  and  _84
REMARK   37  A    between atoms: _84  and  _85
REMARK   38  A    between atoms: _84  and  _87
REMARK   39  A    between atoms: _87  and  _88
REMARK   40  A    between atoms: _88  and  _89
REMARK   41  A    between atoms: _94  and  _96
REMARK   42  A    between atoms: _96  and  _97
REMARK   43  A    between atoms: _96  and  _99
REMARK   44  A    between atoms: _99  and  _100
REMARK   45  A    between atoms: _103  and  _105
REMARK   46  A    between atoms: _105  and  _106
REMARK   47  A    between atoms: _105  and  _108
REMARK   48  A    between atoms: _108  and  _109
REMARK   49  A    between atoms: _110  and  _112
REMARK   50  A    between atoms: _112  and  _113
REMARK   51  A    between atoms: _115  and  _117
REMARK   52  A    between atoms: _117  and  _118
REMARK   53  A    between atoms: _117  and  _120
REMARK   54  A    between atoms: _120  and  _121
REMARK   55  A    between atoms: _124  and  _126
REMARK   56  A    between atoms: _126  and  _127
REMARK   57  A    between atoms: _126  and  _129
REMARK   58  A    between atoms: _129  and  _130
REMARK   59  A    between atoms: _130  and  _131
REMARK   60  A    between atoms: _136  and  _138
REMARK   61  A    between atoms: _138  and  _139
REMARK   62  A    between atoms: _138  and  _141
REMARK   63  A    between atoms: _141  and  _142
REMARK   64  A    between atoms: _145  and  _147
REMARK   65  A    between atoms: _147  and  _148
REMARK   66  A    between atoms: _147  and  _150
REMARK   67  A    between atoms: _150  and  _151
REMARK   68  A    between atoms: _154  and  _156
REMARK   69  A    between atoms: _156  and  _157
REMARK   70  A    between atoms: _156  and  _159
REMARK   71  A    between atoms: _159  and  _160
REMARK   72  A    between atoms: _166  and  _168
REMARK   73  A    between atoms: _168  and  _169
REMARK   74  A    between atoms: _168  and  _171
REMARK   75  A    between atoms: _171  and  _172
REMARK   76  A    between atoms: _172  and  _173
REMARK   77  A    between atoms: _178  and  _180
REMARK   78  A    between atoms: _180  and  _181
REMARK   79  A    between atoms: _183  and  _185
REMARK   80  A    between atoms: _185  and  _186
REMARK   81  A    between atoms: _185  and  _188
REMARK   82  A    between atoms: _188  and  _189
REMARK   83  A    between atoms: _194  and  _195
REMARK   84  A    between atoms: _197  and  _199
REMARK   85  A    between atoms: _199  and  _200
REMARK   86  A    between atoms: _199  and  _202
REMARK   87  A    between atoms: _202  and  _203
REMARK   88  A    between atoms: _208  and  _209
REMARK   89  A    between atoms: _211  and  _213
REMARK   90  A    between atoms: _213  and  _214
REMARK   91  A    between atoms: _213  and  _216
REMARK   92  A    between atoms: _216  and  _217
REMARK   93  A    between atoms: _217  and  _218
REMARK   94  A    between atoms: _218  and  _219
REMARK   95  A    between atoms: _219  and  _220
REMARK   96  A    between atoms: _224  and  _226
REMARK   97  A    between atoms: _226  and  _227
REMARK   98  A    between atoms: _226  and  _229
REMARK   99  A    between atoms: _229  and  _230
REMARK  100  A    between atoms: _233  and  _235
REMARK  101  A    between atoms: _235  and  _236
REMARK  102  A    between atoms: _239  and  _241
REMARK  103  A    between atoms: _241  and  _242
REMARK  104  A    between atoms: _241  and  _244
REMARK  105  A    between atoms: _244  and  _245
REMARK  106  A    between atoms: _245  and  _246
REMARK  107  A    between atoms: _246  and  _247
REMARK  108  A    between atoms: _256  and  _258
REMARK  109  A    between atoms: _258  and  _259
REMARK  110  A    between atoms: _258  and  _261
REMARK  111  A    between atoms: _261  and  _262
REMARK  112  A    between atoms: _267  and  _269
REMARK  113  A    between atoms: _269  and  _270
REMARK  114  A    between atoms: _269  and  _272
REMARK  115  A    between atoms: _272  and  _273
REMARK  116  A    between atoms: _278  and  _279
REMARK  117  A    between atoms: _281  and  _283
REMARK  118  A    between atoms: _283  and  _284
REMARK  119  A    between atoms: _287  and  _289
REMARK  120  A    between atoms: _289  and  _290
REMARK  121  A    between atoms: _289  and  _292
REMARK  122  A    between atoms: _295  and  _297
REMARK  123  A    between atoms: _297  and  _298
REMARK  124  A    between atoms: _297  and  _300
REMARK  125  A    between atoms: _303  and  _305
REMARK  126  A    between atoms: _305  and  _306
REMARK  127  A    between atoms: _305  and  _308
REMARK  128  A    between atoms: _308  and  _309
REMARK  129  A    between atoms: _309  and  _310
REMARK  130  A    between atoms: _313  and  _315
REMARK  131  A    between atoms: _315  and  _316
REMARK  132  A    between atoms: _315  and  _318
REMARK  133  A    between atoms: _318  and  _319
REMARK  134  A    between atoms: _322  and  _324
REMARK  135  A    between atoms: _324  and  _325
REMARK  136  A    between atoms: _324  and  _327
REMARK  137  A    between atoms: _327  and  _328
REMARK  138  A    between atoms: _328  and  _330
REMARK  139  A    between atoms: _330  and  MN_635
REMARK  140  A    between atoms: _331  and  _333
REMARK  141  A    between atoms: _333  and  _334
REMARK  142  A    between atoms: _333  and  _336
REMARK  143  A    between atoms: _336  and  _337
REMARK  144  A    between atoms: _340  and  _342
REMARK  145  A    between atoms: _342  and  _343
REMARK  146  A    between atoms: _342  and  _345
REMARK  147  A    between atoms: _345  and  _346
REMARK  148  A    between atoms: _353  and  _354
REMARK  149  A    between atoms: _359  and  _361
REMARK  150  A    between atoms: _361  and  _362
REMARK  151  A    between atoms: _364  and  _366
REMARK  152  A    between atoms: _366  and  _367
REMARK  153  A    between atoms: _366  and  _369
REMARK  154  A    between atoms: _369  and  _370
REMARK  155  A    between atoms: _373  and  _375
REMARK  156  A    between atoms: _375  and  _376
REMARK  157  A    between atoms: _378  and  _380
REMARK  158  A    between atoms: _380  and  _381
REMARK  159  A    between atoms: _380  and  _383
REMARK  160  A    between atoms: _383  and  _384
REMARK  161  A    between atoms: _394  and  _396
REMARK  162  A    between atoms: _396  and  _397
REMARK  163  A    between atoms: _400  and  _402
REMARK  164  A    between atoms: _402  and  _403
REMARK  165  A    between atoms: _402  and  _405
REMARK  166  A    between atoms: _405  and  _406
REMARK  167  A    between atoms: _412  and  _414
REMARK  168  A    between atoms: _414  and  _415
REMARK  169  A    between atoms: _414  and  _417
REMARK  170  A    between atoms: _417  and  _418
REMARK  171  A    between atoms: _428  and  _430
REMARK  172  A    between atoms: _430  and  _431
REMARK  173  A    between atoms: _430  and  _433
REMARK  174  A    between atoms: _433  and  _434
REMARK  175  A    between atoms: _437  and  _439
REMARK  176  A    between atoms: _439  and  _440
REMARK  177  A    between atoms: _439  and  _442
REMARK  178  A    between atoms: _442  and  _443
REMARK  179  A    between atoms: _446  and  _448
REMARK  180  A    between atoms: _448  and  _449
REMARK  181  A    between atoms: _448  and  _451
REMARK  182  A    between atoms: _451  and  _452
REMARK  183  A    between atoms: _462  and  _464
REMARK  184  A    between atoms: _464  and  _465
REMARK  185  A    between atoms: _464  and  _467
REMARK  186  A    between atoms: _467  and  _468
REMARK  187  A    between atoms: _468  and  _469
REMARK  188  A    between atoms: _469  and  _470
REMARK  189  A    between atoms: _479  and  _481
REMARK  190  A    between atoms: _481  and  _482
REMARK  191  A    between atoms: _481  and  _484
REMARK  192  A    between atoms: _484  and  _485
REMARK  193  A    between atoms: _488  and  _490
REMARK  194  A    between atoms: _490  and  _491
REMARK  195  A    between atoms: _490  and  _493
REMARK  196  A    between atoms: _493  and  _494
REMARK  197  A    between atoms: _500  and  _502
REMARK  198  A    between atoms: _502  and  _503
REMARK  199  A    between atoms: _505  and  _507
REMARK  200  A    between atoms: _507  and  _508
REMARK  201  A    between atoms: _507  and  _510
REMARK  202  A    between atoms: _510  and  _511
REMARK  203  A    between atoms: _511  and  _512
REMARK  204  A    between atoms: _512  and  _513
REMARK  205  A    between atoms: _522  and  _524
REMARK  206  A    between atoms: _524  and  _525
REMARK  207  A    between atoms: _524  and  _527
REMARK  208  A    between atoms: _527  and  _528
REMARK  209  A    between atoms: _528  and  _529
REMARK  210  A    between atoms: _529  and  _530
REMARK  211  A    between atoms: _530  and  _531
REMARK  212  A    between atoms: _535  and  _537
REMARK  213  A    between atoms: _537  and  _538
REMARK  214  A    between atoms: _540  and  _542
REMARK  215  A    between atoms: _542  and  _543
REMARK  216  A    between atoms: _542  and  _545
REMARK  217  A    between atoms: _548  and  _550
REMARK  218  A    between atoms: _550  and  _551
REMARK  219  A    between atoms: _550  and  _553
REMARK  220  A    between atoms: _553  and  _554
REMARK  221  A    between atoms: _556  and  _558
REMARK  222  A    between atoms: _558  and  _559
REMARK  223  A    between atoms: _558  and  _561
REMARK  224  A    between atoms: _561  and  _562
REMARK  225  A    between atoms: _567  and  _569
REMARK  226  A    between atoms: _569  and  _570
REMARK  227  A    between atoms: _572  and  _574
REMARK  228  A    between atoms: _574  and  _575
REMARK  229  A    between atoms: _574  and  _577
REMARK  230  A    between atoms: _577  and  _578
REMARK  231  A    between atoms: _584  and  _586
REMARK  232  A    between atoms: _586  and  _587
REMARK  233  A    between atoms: _586  and  _589
REMARK  234  A    between atoms: _589  and  _590
REMARK  235  A    between atoms: _596  and  _598
REMARK  236  A    between atoms: _598  and  _599
REMARK  237  A    between atoms: _598  and  _601
REMARK  238  A    between atoms: _601  and  _602
REMARK  239  A    between atoms: _605  and  _607
REMARK  240  A    between atoms: _607  and  _608
REMARK  241  A    between atoms: _607  and  _610
REMARK  242  A    between atoms: _610  and  _611
REMARK  243  A    between atoms: _611  and  _612
REMARK  244  A    between atoms: _612  and  _613
REMARK  245  A    between atoms: _613  and  _614
REMARK  246  A    between atoms: _618  and  _620
REMARK  247  A    between atoms: _620  and  _621
REMARK  248  A    between atoms: _620  and  _623
REMARK  249  A    between atoms: _623  and  _624
REMARK  250  A    between atoms: _624  and  _625
REMARK  251  A    between atoms: _625  and  _626
REMARK                            x       y       z     vdW  Elec       q    Type
REMARK                         _______ _______ _______ _____ _____    ______ ____
ROOT
ATOM      1  CA  ASP A   4       1.495  11.304   7.456  0.00  0.00    +0.000 C 
ENDROOT
BRANCH   1   2
ATOM      2  C   ASP A   4       2.953  10.962   7.683  0.00  0.00    +0.000 C 
ATOM      3  N   UNK A   5       3.574  11.540   8.709  0.00  0.00    +0.000 N 
ATOM      4  H   UNK A   5       3.050  12.197   9.322  0.00  0.00    +0.000 HD
ATOM      5  O   ASP A   4       3.513  10.167   6.927  0.00  0.00    +0.000 OA
BRANCH   3   6
ATOM      6  C   UNK A   5       4.976  11.266   8.985  0.00  0.00    +0.000 C 
BRANCH   6   7
ATOM      7  C   UNK A   5       5.159  10.377  10.208  0.00  0.00    +0.000 C 
ATOM      8  O   UNK A   5       6.202  10.400  10.855  0.00  0.00    +0.000 OA
ATOM      9  N   LEU A   6       4.142   9.569  10.503  0.00  0.00    +0.000 N 
ATOM     10  H   LEU A   6       3.287   9.593   9.911  0.00  0.00    +0.000 HD
BRANCH   9  11
ATOM     11  CA  LEU A   6       4.198   8.645  11.644  0.00  0.00    +0.000 C 
BRANCH  11  12
ATOM     12  C   LEU A   6       4.270   7.193  11.192  0.00  0.00    +0.000 C 
ATOM     13  O   LEU A   6       3.523   6.773  10.295  0.00  0.00    +0.000 OA
ENDBRANCH  11  12
BRANCH  11  14
ATOM     14  CB  LEU A   6       2.956   8.805  12.537  0.00  0.00    +0.000 C 
BRANCH  14  15
ATOM     15  CG  LEU A   6       2.686  10.196  13.118  0.00  0.00    +0.000 C 
ATOM     16  CD2 LEU A   6       1.487  10.115  14.070  0.00  0.00    +0.000 C 
ATOM     17  CD1 LEU A   6       3.908  10.699  13.864  0.00  0.00    +0.000 C 
ENDBRANCH  14  15
ENDBRANCH  11  14
ENDBRANCH   9  11
ENDBRANCH   6   7
BRANCH   6  18
ATOM     18  C   UNK A   5       5.752  12.588   9.139  0.00  0.00    +0.000 C 
BRANCH  18  19
ATOM     19  C   UNK A   5       5.208  13.467  10.255  0.00  0.00    +0.000 C 
ATOM     20  O   UNK A   5       4.162  13.115  10.862  0.00  0.00    +0.000 OA
BRANCH  19  21
ATOM     21  O   UNK A   5       5.832  14.519  10.522  0.00  0.00    +0.000 OA
BRANCH  21  22
ATOM     22 MN   UNK A   5       5.331  16.211  11.741  0.00  0.00    +0.000 Mn
ATOM     23  O   UNK A   5       6.682  15.451  13.339  0.00  0.00    +0.000 OA
ATOM     24  O   UNK A   5       3.742  15.014  12.687  0.00  0.00    +0.000 OA
ATOM     25  O   UNK A   5       7.031  17.213  10.725  0.00  0.00    +0.000 OA
ENDBRANCH  21  22
ENDBRANCH  19  21
ENDBRANCH  18  19
ENDBRANCH   6  18
ENDBRANCH   3   6
ENDBRANCH   1   2
BRANCH   1  28
ATOM     26  C   GLU A   3       0.601  11.517   9.721  0.00  0.00    +0.000 C 
ATOM     27  O   GLU A   3       1.106  10.437  10.081  0.00  0.00    +0.000 OA
ATOM     28  N   ASP A   4       0.776  12.022   8.502  0.00  0.00    +0.000 N 
ATOM     29  H   ASP A   4       0.386  12.962   8.288  0.00  0.00    +0.000 HD
BRANCH  26  30
ATOM     30  CA  GLU A   3      -0.283  12.352  10.680  0.00  0.00    +0.000 C 
BRANCH  30  32
ATOM     31  C   VAL A   2      -1.892  10.642  11.243  0.00  0.00    +0.000 C 
ATOM     32  N   GLU A   3      -0.931  11.468  11.648  0.00  0.00    +0.000 N 
ATOM     33  H   GLU A   3      -0.642  11.485  12.647  0.00  0.00    +0.000 HD
ATOM     34  O   VAL A   2      -2.299  10.623  10.078  0.00  0.00    +0.000 OA
BRANCH  31  35
ATOM     35  CA  VAL A   2      -2.487   9.703  12.288  0.00  0.00    +0.000 C 
BRANCH  35  38
ATOM     36  C   VAL A   1      -4.386  10.105  13.789  0.00  0.00    +0.000 C 
ATOM     37  O   VAL A   1      -3.689  10.083  14.794  0.00  0.00    +0.000 OA
ATOM     38  N   VAL A   2      -3.902   9.965  12.557  0.00  0.00    +0.000 N 
ATOM     39  H   VAL A   2      -4.556  10.045  11.752  0.00  0.00    +0.000 HD
BRANCH  36  40
ATOM     40  CA  VAL A   1      -5.892  10.323  13.891  0.00  0.00    +0.000 C 
BRANCH  40  41
ATOM     41  CB  VAL A   1      -6.159  11.738  14.440  0.00  0.00    +0.000 C 
ATOM     42  CG2 VAL A   1      -7.659  11.945  14.592  0.00  0.00    +0.000 C 
ATOM     43  CG1 VAL A   1      -5.561  12.787  13.500  0.00  0.00    +0.000 C 
ENDBRANCH  40  41
BRANCH  40  44
ATOM     44  N   VAL A   1      -6.503   9.320  14.763  0.00  0.00    +0.000 NA
ATOM     45  H   VAL A   1      -6.550   9.510  15.784  0.00  0.00    +0.000 HD
ENDBRANCH  40  44
ENDBRANCH  36  40
ENDBRANCH  35  38
BRANCH  35  46
ATOM     46  CB  VAL A   2      -2.315   8.246  11.773  0.00  0.00    +0.000 C 
ATOM     47  CG2 VAL A   2      -2.873   7.251  12.819  0.00  0.00    +0.000 C 
ATOM     48  CG1 VAL A   2      -0.843   7.944  11.465  0.00  0.00    +0.000 C 
ENDBRANCH  35  46
ENDBRANCH  31  35
ENDBRANCH  30  32
BRANCH  30  49
ATOM     49  CB  GLU A   3       0.479  13.472  11.431  0.00  0.00    +0.000 C 
BRANCH  49  50
ATOM     50  CG  GLU A   3      -0.538  14.370  12.195  0.00  0.00    +0.000 C 
BRANCH  50  51
ATOM     51  CD  GLU A   3       0.024  15.652  12.822  0.00  0.00    +0.000 C 
ATOM     52  OE2 GLU A   3       1.232  15.728  13.115  0.00  0.00    +0.000 OA
ATOM     53  OE1 GLU A   3      -0.774  16.593  13.050  0.00  0.00    +0.000 OA
ENDBRANCH  50  51
ENDBRANCH  49  50
ENDBRANCH  30  49
ENDBRANCH  26  30
ENDBRANCH   1  28
BRANCH   1  54
ATOM     54  CB  ASP A   4       1.359  12.045   6.110  0.00  0.00    +0.000 C 
BRANCH  54  55
ATOM     55  CG  ASP A   4       2.136  13.349   6.082  0.00  0.00    +0.000 C 
ATOM     56  OD2 ASP A   4       1.888  14.193   6.961  0.00  0.00    +0.000 OA
ATOM     57  OD1 ASP A   4       2.995  13.528   5.187  0.00  0.00    +0.000 OA
ENDBRANCH  54  55
ENDBRANCH   1  54
TORSDOF 25
REMARK  Name = ../refined-set-2016/2am4/2am4_pocket.pdb
REMARK  251 active torsions:
REMARK  status: ('A' for Active; 'I' for Inactive)
REMARK    1  A    between atoms: _1  and  _3
REMARK    2  A    between atoms: _3  and  _4
REMARK    3  A    between atoms: _3  and  _6
REMARK    4  A    between atoms: _6  and  _7
REMARK    5  A    between atoms: _10  and  _12
REMARK    6  A    between atoms: _12  and  _13
REMARK    7  A    between atoms: _12  and  _15
REMARK    8  A    between atoms: _18  and  _20
REMARK    9  A    between atoms: _20  and  _21
REMARK   10  A    between atoms: _20  and  _23
REMARK   11  A    between atoms: _23  and  _24
REMARK   12  A    between atoms: _27  and  _29
REMARK   13  A    between atoms: _29  and  _30
REMARK   14  A    between atoms: _33  and  _35
REMARK   15  A    between atoms: _35  and  _36
REMARK   16  A    between atoms: _35  and  _38
REMARK   17  A    between atoms: _38  and  _39
REMARK   18  A    between atoms: _39  and  _109
REMARK   19  A    between atoms: _40  and  _42
REMARK   20  A    between atoms: _42  and  _43
REMARK   21  A    between atoms: _42  and  _45
REMARK   22  A    between atoms: _45  and  _46
REMARK   23  A    between atoms: _49  and  _51
REMARK   24  A    between atoms: _51  and  _52
REMARK   25  A    between atoms: _51  and  _54
REMARK   26  A    between atoms: _54  and  _55
REMARK   27  A    between atoms: _55  and  _56
REMARK   28  A    between atoms: _56  and  _57
REMARK   29  A    between atoms: _66  and  _68
REMARK   30  A    between atoms: _68  and  _69
REMARK   31  A    between atoms: _68  and  _71
REMARK   32  A    between atoms: _74  and  _76
REMARK   33  A    between atoms: _76  and  _77
REMARK   34  A    between atoms: _76  and  _79
REMARK   35  A    between atoms: _79  and  _80
REMARK   36  A    between atoms: _82  and  _84
REMARK   37  A    between atoms: _84  and  _85
REMARK   38  A    between atoms: _84  and  _87
REMARK   39  A    between atoms: _87  and  _88
REMARK   40  A    between atoms: _88  and  _89
REMARK   41  A    between atoms: _94  and  _96
REMARK   42  A    between atoms: _96  and  _97
REMARK   43  A    between atoms: _96  and  _99
REMARK   44  A    between atoms: _99  and  _100
REMARK   45  A    between atoms: _103  and  _105
REMARK   46  A    between atoms: _105  and  _106
REMARK   47  A    between atoms: _105  and  _108
REMARK   48  A    between atoms: _108  and  _109
REMARK   49  A    between atoms: _110  and  _112
REMARK   50  A    between atoms: _112  and  _113
REMARK   51  A    between atoms: _115  and  _117
REMARK   52  A    between atoms: _117  and  _118
REMARK   53  A    between atoms: _117  and  _120
REMARK   54  A    between atoms: _120  and  _121
REMARK   55  A    between atoms: _124  and  _126
REMARK   56  A    between atoms: _126  and  _127
REMARK   57  A    between atoms: _126  and  _129
REMARK   58  A    between atoms: _129  and  _130
REMARK   59  A    between atoms: _130  and  _131
REMARK   60  A    between atoms: _136  and  _138
REMARK   61  A    between atoms: _138  and  _139
REMARK   62  A    between atoms: _138  and  _141
REMARK   63  A    between atoms: _141  and  _142
REMARK   64  A    between atoms: _145  and  _147
REMARK   65  A    between atoms: _147  and  _148
REMARK   66  A    between atoms: _147  and  _150
REMARK   67  A    between atoms: _150  and  _151
REMARK   68  A    between atoms: _154  and  _156
REMARK   69  A    between atoms: _156  and  _157
REMARK   70  A    between atoms: _156  and  _159
REMARK   71  A    between atoms: _159  and  _160
REMARK   72  A    between atoms: _166  and  _168
REMARK   73  A    between atoms: _168  and  _169
REMARK   74  A    between atoms: _168  and  _171
REMARK   75  A    between atoms: _171  and  _172
REMARK   76  A    between atoms: _172  and  _173
REMARK   77  A    between atoms: _178  and  _180
REMARK   78  A    between atoms: _180  and  _181
REMARK   79  A    between atoms: _183  and  _185
REMARK   80  A    between atoms: _185  and  _186
REMARK   81  A    between atoms: _185  and  _188
REMARK   82  A    between atoms: _188  and  _189
REMARK   83  A    between atoms: _194  and  _195
REMARK   84  A    between atoms: _197  and  _199
REMARK   85  A    between atoms: _199  and  _200
REMARK   86  A    between atoms: _199  and  _202
REMARK   87  A    between atoms: _202  and  _203
REMARK   88  A    between atoms: _208  and  _209
REMARK   89  A    between atoms: _211  and  _213
REMARK   90  A    between atoms: _213  and  _214
REMARK   91  A    between atoms: _213  and  _216
REMARK   92  A    between atoms: _216  and  _217
REMARK   93  A    between atoms: _217  and  _218
REMARK   94  A    between atoms: _218  and  _219
REMARK   95  A    between atoms: _219  and  _220
REMARK   96  A    between atoms: _224  and  _226
REMARK   97  A    between atoms: _226  and  _227
REMARK   98  A    between atoms: _226  and  _229
REMARK   99  A    between atoms: _229  and  _230
REMARK  100  A    between atoms: _233  and  _235
REMARK  101  A    between atoms: _235  and  _236
REMARK  102  A    between atoms: _239  and  _241
REMARK  103  A    between atoms: _241  and  _242
REMARK  104  A    between atoms: _241  and  _244
REMARK  105  A    between atoms: _244  and  _245
REMARK  106  A    between atoms: _245  and  _246
REMARK  107  A    between atoms: _246  and  _247
REMARK  108  A    between atoms: _256  and  _258
REMARK  109  A    between atoms: _258  and  _259
REMARK  110  A    between atoms: _258  and  _261
REMARK  111  A    between atoms: _261  and  _262
REMARK  112  A    between atoms: _267  and  _269
REMARK  113  A    between atoms: _269  and  _270
REMARK  114  A    between atoms: _269  and  _272
REMARK  115  A    between atoms: _272  and  _273
REMARK  116  A    between atoms: _278  and  _279
REMARK  117  A    between atoms: _281  and  _283
REMARK  118  A    between atoms: _283  and  _284
REMARK  119  A    between atoms: _287  and  _289
REMARK  120  A    between atoms: _289  and  _290
REMARK  121  A    between atoms: _289  and  _292
REMARK  122  A    between atoms: _295  and  _297
REMARK  123  A    between atoms: _297  and  _298
REMARK  124  A    between atoms: _297  and  _300
REMARK  125  A    between atoms: _303  and  _305
REMARK  126  A    between atoms: _305  and  _306
REMARK  127  A    between atoms: _305  and  _308
REMARK  128  A    between atoms: _308  and  _309
REMARK  129  A    between atoms: _309  and  _310
REMARK  130  A    between atoms: _313  and  _315
REMARK  131  A    between atoms: _315  and  _316
REMARK  132  A    between atoms: _315  and  _318
REMARK  133  A    between atoms: _318  and  _319
REMARK  134  A    between atoms: _322  and  _324
REMARK  135  A    between atoms: _324  and  _325
REMARK  136  A    between atoms: _324  and  _327
REMARK  137  A    between atoms: _327  and  _328
REMARK  138  A    between atoms: _328  and  _330
REMARK  139  A    between atoms: _330  and  MN_635
REMARK  140  A    between atoms: _331  and  _333
REMARK  141  A    between atoms: _333  and  _334
REMARK  142  A    between atoms: _333  and  _336
REMARK  143  A    between atoms: _336  and  _337
REMARK  144  A    between atoms: _340  and  _342
REMARK  145  A    between atoms: _342  and  _343
REMARK  146  A    between atoms: _342  and  _345
REMARK  147  A    between atoms: _345  and  _346
REMARK  148  A    between atoms: _353  and  _354
REMARK  149  A    between atoms: _359  and  _361
REMARK  150  A    between atoms: _361  and  _362
REMARK  151  A    between atoms: _364  and  _366
REMARK  152  A    between atoms: _366  and  _367
REMARK  153  A    between atoms: _366  and  _369
REMARK  154  A    between atoms: _369  and  _370
REMARK  155  A    between atoms: _373  and  _375
REMARK  156  A    between atoms: _375  and  _376
REMARK  157  A    between atoms: _378  and  _380
REMARK  158  A    between atoms: _380  and  _381
REMARK  159  A    between atoms: _380  and  _383
REMARK  160  A    between atoms: _383  and  _384
REMARK  161  A    between atoms: _394  and  _396
REMARK  162  A    between atoms: _396  and  _397
REMARK  163  A    between atoms: _400  and  _402
REMARK  164  A    between atoms: _402  and  _403
REMARK  165  A    between atoms: _402  and  _405
REMARK  166  A    between atoms: _405  and  _406
REMARK  167  A    between atoms: _412  and  _414
REMARK  168  A    between atoms: _414  and  _415
REMARK  169  A    between atoms: _414  and  _417
REMARK  170  A    between atoms: _417  and  _418
REMARK  171  A    between atoms: _428  and  _430
REMARK  172  A    between atoms: _430  and  _431
REMARK  173  A    between atoms: _430  and  _433
REMARK  174  A    between atoms: _433  and  _434
REMARK  175  A    between atoms: _437  and  _439
REMARK  176  A    between atoms: _439  and  _440
REMARK  177  A    between atoms: _439  and  _442
REMARK  178  A    between atoms: _442  and  _443
REMARK  179  A    between atoms: _446  and  _448
REMARK  180  A    between atoms: _448  and  _449
REMARK  181  A    between atoms: _448  and  _451
REMARK  182  A    between atoms: _451  and  _452
REMARK  183  A    between atoms: _462  and  _464
REMARK  184  A    between atoms: _464  and  _465
REMARK  185  A    between atoms: _464  and  _467
REMARK  186  A    between atoms: _467  and  _468
REMARK  187  A    between atoms: _468  and  _469
REMARK  188  A    between atoms: _469  and  _470
REMARK  189  A    between atoms: _479  and  _481
REMARK  190  A    between atoms: _481  and  _482
REMARK  191  A    between atoms: _481  and  _484
REMARK  192  A    between atoms: _484  and  _485
REMARK  193  A    between atoms: _488  and  _490
REMARK  194  A    between atoms: _490  and  _491
REMARK  195  A    between atoms: _490  and  _493
REMARK  196  A    between atoms: _493  and  _494
REMARK  197  A    between atoms: _500  and  _502
REMARK  198  A    between atoms: _502  and  _503
REMARK  199  A    between atoms: _505  and  _507
REMARK  200  A    between atoms: _507  and  _508
REMARK  201  A    between atoms: _507  and  _510
REMARK  202  A    between atoms: _510  and  _511
REMARK  203  A    between atoms: _511  and  _512
REMARK  204  A    between atoms: _512  and  _513
REMARK  205  A    between atoms: _522  and  _524
REMARK  206  A    between atoms: _524  and  _525
REMARK  207  A    between atoms: _524  and  _527
REMARK  208  A    between atoms: _527  and  _528
REMARK  209  A    between atoms: _528  and  _529
REMARK  210  A    between atoms: _529  and  _530
REMARK  211  A    between atoms: _530  and  _531
REMARK  212  A    between atoms: _535  and  _537
REMARK  213  A    between atoms: _537  and  _538
REMARK  214  A    between atoms: _540  and  _542
REMARK  215  A    between atoms: _542  and  _543
REMARK  216  A    between atoms: _542  and  _545
REMARK  217  A    between atoms: _548  and  _550
REMARK  218  A    between atoms: _550  and  _551
REMARK  219  A    between atoms: _550  and  _553
REMARK  220  A    between atoms: _553  and  _554
REMARK  221  A    between atoms: _556  and  _558
REMARK  222  A    between atoms: _558  and  _559
REMARK  223  A    between atoms: _558  and  _561
REMARK  224  A    between atoms: _561  and  _562
REMARK  225  A    between atoms: _567  and  _569
REMARK  226  A    between atoms: _569  and  _570
REMARK  227  A    between atoms: _572  and  _574
REMARK  228  A    between atoms: _574  and  _575
REMARK  229  A    between atoms: _574  and  _577
REMARK  230  A    between atoms: _577  and  _578
REMARK  231  A    between atoms: _584  and  _586
REMARK  232  A    between atoms: _586  and  _587
REMARK  233  A    between atoms: _586  and  _589
REMARK  234  A    between atoms: _589  and  _590
REMARK  235  A    between atoms: _596  and  _598
REMARK  236  A    between atoms: _598  and  _599
REMARK  237  A    between atoms: _598  and  _601
REMARK  238  A    between atoms: _601  and  _602
REMARK  239  A    between atoms: _605  and  _607
REMARK  240  A    between atoms: _607  and  _608
REMARK  241  A    between atoms: _607  and  _610
REMARK  242  A    between atoms: _610  and  _611
REMARK  243  A    between atoms: _611  and  _612
REMARK  244  A    between atoms: _612  and  _613
REMARK  245  A    between atoms: _613  and  _614
REMARK  246  A    between atoms: _618  and  _620
REMARK  247  A    between atoms: _620  and  _621
REMARK  248  A    between atoms: _620  and  _623
REMARK  249  A    between atoms: _623  and  _624
REMARK  250  A    between atoms: _624  and  _625
REMARK  251  A    between atoms: _625  and  _626
REMARK                            x       y       z     vdW  Elec       q    Type
REMARK                         _______ _______ _______ _____ _____    ______ ____
ROOT
ATOM      1  CA  LEU A   4       0.766  11.824  17.617  0.00  0.00    +0.149 C 
ENDROOT
BRANCH   1   4
ATOM      2  C   GLY A   3      -0.691  12.612  19.458  0.00  0.00    +0.243 C 
ATOM      3  O   GLY A   3      -0.637  11.541  20.075  0.00  0.00    -0.273 OA
ATOM      4  N   LEU A   4      -0.107  12.815  18.274  0.00  0.00    -0.297 N 
ATOM      5  H   LEU A   4      -0.277  13.720  17.790  0.00  0.00    +0.150 HD
BRANCH   2   6
ATOM      6  CA  GLY A   3      -1.497  13.767  20.037  0.00  0.00    +0.176 C 
BRANCH   6   8
ATOM      7  C   PRO A   2      -0.075  13.962  21.989  0.00  0.00    +0.241 C 
ATOM      8  N   GLY A   3      -1.292  13.770  21.481  0.00  0.00    -0.295 N 
ATOM      9  H   GLY A   3      -2.100  13.621  22.118  0.00  0.00    +0.150 HD
ATOM     10  O   PRO A   2       0.920  14.189  21.293  0.00  0.00    -0.273 OA
BRANCH   7  16
ATOM     11  C   PHE A   1      -1.447  15.378  24.696  0.00  0.00    +0.242 C 
ATOM     12  N   PRO A   2      -1.099  14.120  24.355  0.00  0.00    -0.272 N 
ATOM     13  CD  PRO A   2      -1.628  12.839  24.842  0.00  0.00    +0.094 C 
ATOM     14  CG  PRO A   2      -0.325  12.087  25.102  0.00  0.00    +0.024 C 
ATOM     15  CB  PRO A   2       0.550  12.486  23.921  0.00  0.00    +0.031 C 
ATOM     16  CA  PRO A   2       0.070  13.887  23.503  0.00  0.00    +0.152 C 
ATOM     17  O   PHE A   1      -0.832  16.347  24.257  0.00  0.00    -0.273 OA
BRANCH  11  18
ATOM     18  CA  PHE A   1      -2.664  15.567  25.610  0.00  0.00    +0.149 C 
BRANCH  18  19
ATOM     19  N   PHE A   1      -2.211  16.129  26.886  0.00  0.00    -0.238 NA
ATOM     20  H   PHE A   1      -2.603  17.038  27.206  0.00  0.00    +0.142 HD
ENDBRANCH  18  19
BRANCH  18  21
ATOM     21  CB  PHE A   1      -3.676  16.521  24.971  0.00  0.00    +0.053 C 
BRANCH  21  22
ATOM     22  CG  PHE A   1      -3.998  16.189  23.542  0.00  0.00    -0.020 A 
ATOM     23  CD2 PHE A   1      -4.574  14.968  23.218  0.00  0.00    -0.004 A 
ATOM     24  CE2 PHE A   1      -4.864  14.637  21.887  0.00  0.00    -0.000 A 
ATOM     25  CZ  PHE A   1      -4.571  15.543  20.875  0.00  0.00    -0.000 A 
ATOM     26  CE1 PHE A   1      -3.992  16.771  21.195  0.00  0.00    -0.000 A 
ATOM     27  CD1 PHE A   1      -3.712  17.086  22.520  0.00  0.00    -0.004 A 
ENDBRANCH  21  22
ENDBRANCH  18  21
ENDBRANCH  11  18
ENDBRANCH   7  16
ENDBRANCH   6   8
ENDBRANCH   2   6
ENDBRANCH   1   4
BRANCH   1  28
ATOM     28  C   LEU A   4       0.251  10.380  17.639  0.00  0.00    +0.241 C 
ATOM     29  O   LEU A   4       0.893   9.468  18.195  0.00  0.00    -0.273 OA
ATOM     30  N   GLY A   5      -0.883  10.185  16.975  0.00  0.00    -0.295 N 
ATOM     31  H   GLY A   5      -1.322  10.988  16.481  0.00  0.00    +0.150 HD
BRANCH  30  32
ATOM     32  CA  GLY A   5      -1.528   8.884  16.918  0.00  0.00    +0.176 C 
BRANCH  32  33
ATOM     33  C   GLY A   5      -2.501   8.829  18.077  0.00  0.00    +0.243 C 
ATOM     34  O   GLY A   5      -2.169   8.319  19.145  0.00  0.00    -0.273 OA
ATOM     35  N   TRP A   6      -3.710   9.349  17.882  0.00  0.00    -0.298 N 
ATOM     36  H   TRP A   6      -3.974   9.727  16.950  0.00  0.00    +0.150 HD
BRANCH  35  37
ATOM     37  CA  TRP A   6      -4.665   9.384  18.990  0.00  0.00    +0.141 C 
BRANCH  37  38
ATOM     38  C   TRP A   6      -6.107   9.082  18.620  0.00  0.00    +0.227 C 
ATOM     39  O   TRP A   6      -6.569   9.439  17.543  0.00  0.00    -0.286 OA
ENDBRANCH  37  38
BRANCH  37  40
ATOM     40  CB  TRP A   6      -4.595  10.748  19.697  0.00  0.00    +0.056 C 
BRANCH  40  41
ATOM     41  CG  TRP A   6      -4.805  11.918  18.789  0.00  0.00    -0.002 A 
ATOM     42  CD2 TRP A   6      -5.925  12.813  18.796  0.00  0.00    +0.013 A 
ATOM     43  CE3 TRP A   6      -7.101  12.891  19.554  0.00  0.00    +0.001 A 
ATOM     44  CZ3 TRP A   6      -7.997  13.931  19.296  0.00  0.00    +0.000 A 
ATOM     45  CH2 TRP A   6      -7.731  14.879  18.296  0.00  0.00    +0.001 A 
ATOM     46  CZ2 TRP A   6      -6.587  14.823  17.535  0.00  0.00    +0.017 A 
ATOM     47  CE2 TRP A   6      -5.690  13.784  17.794  0.00  0.00    +0.056 A 
ATOM     48  NE1 TRP A   6      -4.485  13.489  17.206  0.00  0.00    -0.352 N 
ATOM     49  HE1 TRP A   6      -4.041  14.025  16.433  0.00  0.00    +0.166 HD
ATOM     50  CD1 TRP A   6      -3.960  12.366  17.808  0.00  0.00    +0.068 A 
ENDBRANCH  40  41
ENDBRANCH  37  40
ENDBRANCH  35  37
ENDBRANCH  32  33
ENDBRANCH  30  32
ENDBRANCH   1  28
BRANCH   1  51
ATOM     51  CB  LEU A   4       2.177  11.914  18.229  0.00  0.00    +0.029 C 
BRANCH  51  52
ATOM     52  CG  LEU A   4       2.812  13.302  17.994  0.00  0.00    +0.002 C 
ATOM     53  CD2 LEU A   4       4.070  13.464  18.837  0.00  0.00    +0.000 C 
ATOM     54  CD1 LEU A   4       3.115  13.476  16.510  0.00  0.00    +0.000 C 
ENDBRANCH  51  52
ENDBRANCH   1  51
TORSDOF 17
REMARK  Name = ../refined-set-2016/2am4/2am4_pocket.pdb
REMARK  251 active torsions:
REMARK  status: ('A' for Active; 'I' for Inactive)
REMARK    1  A    between atoms: _1  and  _3
REMARK    2  A    between atoms: _3  and  _4
REMARK    3  A    between atoms: _3  and  _6
REMARK    4  A    between atoms: _6  and  _7
REMARK    5  A    between atoms: _10  and  _12
REMARK    6  A    between atoms: _12  and  _13
REMARK    7  A    between atoms: _12  and  _15
REMARK    8  A    between atoms: _18  and  _20
REMARK    9  A    between atoms: _20  and  _21
REMARK   10  A    between atoms: _20  and  _23
REMARK   11  A    between atoms: _23  and  _24
REMARK   12  A    between atoms: _27  and  _29
REMARK   13  A    between atoms: _29  and  _30
REMARK   14  A    between atoms: _33  and  _35
REMARK   15  A    between atoms: _35  and  _36
REMARK   16  A    between atoms: _35  and  _38
REMARK   17  A    between atoms: _38  and  _39
REMARK   18  A    between atoms: _39  and  _109
REMARK   19  A    between atoms: _40  and  _42
REMARK   20  A    between atoms: _42  and  _43
REMARK   21  A    between atoms: _42  and  _45
REMARK   22  A    between atoms: _45  and  _46
REMARK   23  A    between atoms: _49  and  _51
REMARK   24  A    between atoms: _51  and  _52
REMARK   25  A    between atoms: _51  and  _54
REMARK   26  A    between atoms: _54  and  _55
REMARK   27  A    between atoms: _55  and  _56
REMARK   28  A    between atoms: _56  and  _57
REMARK   29  A    between atoms: _66  and  _68
REMARK   30  A    between atoms: _68  and  _69
REMARK   31  A    between atoms: _68  and  _71
REMARK   32  A    between atoms: _74  and  _76
REMARK   33  A    between atoms: _76  and  _77
REMARK   34  A    between atoms: _76  and  _79
REMARK   35  A    between atoms: _79  and  _80
REMARK   36  A    between atoms: _82  and  _84
REMARK   37  A    between atoms: _84  and  _85
REMARK   38  A    between atoms: _84  and  _87
REMARK   39  A    between atoms: _87  and  _88
REMARK   40  A    between atoms: _88  and  _89
REMARK   41  A    between atoms: _94  and  _96
REMARK   42  A    between atoms: _96  and  _97
REMARK   43  A    between atoms: _96  and  _99
REMARK   44  A    between atoms: _99  and  _100
REMARK   45  A    between atoms: _103  and  _105
REMARK   46  A    between atoms: _105  and  _106
REMARK   47  A    between atoms: _105  and  _108
REMARK   48  A    between atoms: _108  and  _109
REMARK   49  A    between atoms: _110  and  _112
REMARK   50  A    between atoms: _112  and  _113
REMARK   51  A    between atoms: _115  and  _117
REMARK   52  A    between atoms: _117  and  _118
REMARK   53  A    between atoms: _117  and  _120
REMARK   54  A    between atoms: _120  and  _121
REMARK   55  A    between atoms: _124  and  _126
REMARK   56  A    between atoms: _126  and  _127
REMARK   57  A    between atoms: _126  and  _129
REMARK   58  A    between atoms: _129  and  _130
REMARK   59  A    between atoms: _130  and  _131
REMARK   60  A    between atoms: _136  and  _138
REMARK   61  A    between atoms: _138  and  _139
REMARK   62  A    between atoms: _138  and  _141
REMARK   63  A    between atoms: _141  and  _142
REMARK   64  A    between atoms: _145  and  _147
REMARK   65  A    between atoms: _147  and  _148
REMARK   66  A    between atoms: _147  and  _150
REMARK   67  A    between atoms: _150  and  _151
REMARK   68  A    between atoms: _154  and  _156
REMARK   69  A    between atoms: _156  and  _157
REMARK   70  A    between atoms: _156  and  _159
REMARK   71  A    between atoms: _159  and  _160
REMARK   72  A    between atoms: _166  and  _168
REMARK   73  A    between atoms: _168  and  _169
REMARK   74  A    between atoms: _168  and  _171
REMARK   75  A    between atoms: _171  and  _172
REMARK   76  A    between atoms: _172  and  _173
REMARK   77  A    between atoms: _178  and  _180
REMARK   78  A    between atoms: _180  and  _181
REMARK   79  A    between atoms: _183  and  _185
REMARK   80  A    between atoms: _185  and  _186
REMARK   81  A    between atoms: _185  and  _188
REMARK   82  A    between atoms: _188  and  _189
REMARK   83  A    between atoms: _194  and  _195
REMARK   84  A    between atoms: _197  and  _199
REMARK   85  A    between atoms: _199  and  _200
REMARK   86  A    between atoms: _199  and  _202
REMARK   87  A    between atoms: _202  and  _203
REMARK   88  A    between atoms: _208  and  _209
REMARK   89  A    between atoms: _211  and  _213
REMARK   90  A    between atoms: _213  and  _214
REMARK   91  A    between atoms: _213  and  _216
REMARK   92  A    between atoms: _216  and  _217
REMARK   93  A    between atoms: _217  and  _218
REMARK   94  A    between atoms: _218  and  _219
REMARK   95  A    between atoms: _219  and  _220
REMARK   96  A    between atoms: _224  and  _226
REMARK   97  A    between atoms: _226  and  _227
REMARK   98  A    between atoms: _226  and  _229
REMARK   99  A    between atoms: _229  and  _230
REMARK  100  A    between atoms: _233  and  _235
REMARK  101  A    between atoms: _235  and  _236
REMARK  102  A    between atoms: _239  and  _241
REMARK  103  A    between atoms: _241  and  _242
REMARK  104  A    between atoms: _241  and  _244
REMARK  105  A    between atoms: _244  and  _245
REMARK  106  A    between atoms: _245  and  _246
REMARK  107  A    between atoms: _246  and  _247
REMARK  108  A    between atoms: _256  and  _258
REMARK  109  A    between atoms: _258  and  _259
REMARK  110  A    between atoms: _258  and  _261
REMARK  111  A    between atoms: _261  and  _262
REMARK  112  A    between atoms: _267  and  _269
REMARK  113  A    between atoms: _269  and  _270
REMARK  114  A    between atoms: _269  and  _272
REMARK  115  A    between atoms: _272  and  _273
REMARK  116  A    between atoms: _278  and  _279
REMARK  117  A    between atoms: _281  and  _283
REMARK  118  A    between atoms: _283  and  _284
REMARK  119  A    between atoms: _287  and  _289
REMARK  120  A    between atoms: _289  and  _290
REMARK  121  A    between atoms: _289  and  _292
REMARK  122  A    between atoms: _295  and  _297
REMARK  123  A    between atoms: _297  and  _298
REMARK  124  A    between atoms: _297  and  _300
REMARK  125  A    between atoms: _303  and  _305
REMARK  126  A    between atoms: _305  and  _306
REMARK  127  A    between atoms: _305  and  _308
REMARK  128  A    between atoms: _308  and  _309
REMARK  129  A    between atoms: _309  and  _310
REMARK  130  A    between atoms: _313  and  _315
REMARK  131  A    between atoms: _315  and  _316
REMARK  132  A    between atoms: _315  and  _318
REMARK  133  A    between atoms: _318  and  _319
REMARK  134  A    between atoms: _322  and  _324
REMARK  135  A    between atoms: _324  and  _325
REMARK  136  A    between atoms: _324  and  _327
REMARK  137  A    between atoms: _327  and  _328
REMARK  138  A    between atoms: _328  and  _330
REMARK  139  A    between atoms: _330  and  MN_635
REMARK  140  A    between atoms: _331  and  _333
REMARK  141  A    between atoms: _333  and  _334
REMARK  142  A    between atoms: _333  and  _336
REMARK  143  A    between atoms: _336  and  _337
REMARK  144  A    between atoms: _340  and  _342
REMARK  145  A    between atoms: _342  and  _343
REMARK  146  A    between atoms: _342  and  _345
REMARK  147  A    between atoms: _345  and  _346
REMARK  148  A    between atoms: _353  and  _354
REMARK  149  A    between atoms: _359  and  _361
REMARK  150  A    between atoms: _361  and  _362
REMARK  151  A    between atoms: _364  and  _366
REMARK  152  A    between atoms: _366  and  _367
REMARK  153  A    between atoms: _366  and  _369
REMARK  154  A    between atoms: _369  and  _370
REMARK  155  A    between atoms: _373  and  _375
REMARK  156  A    between atoms: _375  and  _376
REMARK  157  A    between atoms: _378  and  _380
REMARK  158  A    between atoms: _380  and  _381
REMARK  159  A    between atoms: _380  and  _383
REMARK  160  A    between atoms: _383  and  _384
REMARK  161  A    between atoms: _394  and  _396
REMARK  162  A    between atoms: _396  and  _397
REMARK  163  A    between atoms: _400  and  _402
REMARK  164  A    between atoms: _402  and  _403
REMARK  165  A    between atoms: _402  and  _405
REMARK  166  A    between atoms: _405  and  _406
REMARK  167  A    between atoms: _412  and  _414
REMARK  168  A    between atoms: _414  and  _415
REMARK  169  A    between atoms: _414  and  _417
REMARK  170  A    between atoms: _417  and  _418
REMARK  171  A    between atoms: _428  and  _430
REMARK  172  A    between atoms: _430  and  _431
REMARK  173  A    between atoms: _430  and  _433
REMARK  174  A    between atoms: _433  and  _434
REMARK  175  A    between atoms: _437  and  _439
REMARK  176  A    between atoms: _439  and  _440
REMARK  177  A    between atoms: _439  and  _442
REMARK  178  A    between atoms: _442  and  _443
REMARK  179  A    between atoms: _446  and  _448
REMARK  180  A    between atoms: _448  and  _449
REMARK  181  A    between atoms: _448  and  _451
REMARK  182  A    between atoms: _451  and  _452
REMARK  183  A    between atoms: _462  and  _464
REMARK  184  A    between atoms: _464  and  _465
REMARK  185  A    between atoms: _464  and  _467
REMARK  186  A    between atoms: _467  and  _468
REMARK  187  A    between atoms: _468  and  _469
REMARK  188  A    between atoms: _469  and  _470
REMARK  189  A    between atoms: _479  and  _481
REMARK  190  A    between atoms: _481  and  _482
REMARK  191  A    between atoms: _481  and  _484
REMARK  192  A    between atoms: _484  and  _485
REMARK  193  A    between atoms: _488  and  _490
REMARK  194  A    between atoms: _490  and  _491
REMARK  195  A    between atoms: _490  and  _493
REMARK  196  A    between atoms: _493  and  _494
REMARK  197  A    between atoms: _500  and  _502
REMARK  198  A    between atoms: _502  and  _503
REMARK  199  A    between atoms: _505  and  _507
REMARK  200  A    between atoms: _507  and  _508
REMARK  201  A    between atoms: _507  and  _510
REMARK  202  A    between atoms: _510  and  _511
REMARK  203  A    between atoms: _511  and  _512
REMARK  204  A    between atoms: _512  and  _513
REMARK  205  A    between atoms: _522  and  _524
REMARK  206  A    between atoms: _524  and  _525
REMARK  207  A    between atoms: _524  and  _527
REMARK  208  A    between atoms: _527  and  _528
REMARK  209  A    between atoms: _528  and  _529
REMARK  210  A    between atoms: _529  and  _530
REMARK  211  A    between atoms: _530  and  _531
REMARK  212  A    between atoms: _535  and  _537
REMARK  213  A    between atoms: _537  and  _538
REMARK  214  A    between atoms: _540  and  _542
REMARK  215  A    between atoms: _542  and  _543
REMARK  216  A    between atoms: _542  and  _545
REMARK  217  A    between atoms: _548  and  _550
REMARK  218  A    between atoms: _550  and  _551
REMARK  219  A    between atoms: _550  and  _553
REMARK  220  A    between atoms: _553  and  _554
REMARK  221  A    between atoms: _556  and  _558
REMARK  222  A    between atoms: _558  and  _559
REMARK  223  A    between atoms: _558  and  _561
REMARK  224  A    between atoms: _561  and  _562
REMARK  225  A    between atoms: _567  and  _569
REMARK  226  A    between atoms: _569  and  _570
REMARK  227  A    between atoms: _572  and  _574
REMARK  228  A    between atoms: _574  and  _575
REMARK  229  A    between atoms: _574  and  _577
REMARK  230  A    between atoms: _577  and  _578
REMARK  231  A    between atoms: _584  and  _586
REMARK  232  A    between atoms: _586  and  _587
REMARK  233  A    between atoms: _586  and  _589
REMARK  234  A    between atoms: _589  and  _590
REMARK  235  A    between atoms: _596  and  _598
REMARK  236  A    between atoms: _598  and  _599
REMARK  237  A    between atoms: _598  and  _601
REMARK  238  A    between atoms: _601  and  _602
REMARK  239  A    between atoms: _605  and  _607
REMARK  240  A    between atoms: _607  and  _608
REMARK  241  A    between atoms: _607  and  _610
REMARK  242  A    between atoms: _610  and  _611
REMARK  243  A    between atoms: _611  and  _612
REMARK  244  A    between atoms: _612  and  _613
REMARK  245  A    between atoms: _613  and  _614
REMARK  246  A    between atoms: _618  and  _620
REMARK  247  A    between atoms: _620  and  _621
REMARK  248  A    between atoms: _620  and  _623
REMARK  249  A    between atoms: _623  and  _624
REMARK  250  A    between atoms: _624  and  _625
REMARK  251  A    between atoms: _625  and  _626
REMARK                            x       y       z     vdW  Elec       q    Type
REMARK                         _______ _______ _______ _____ _____    ______ ____
ROOT
ATOM      1  C   TRP A   3      -4.744  22.409  18.634  0.00  0.00    +0.241 C 
ATOM      2  O   TRP A   3      -5.545  22.296  19.568  0.00  0.00    -0.273 OA
ATOM      3  N   ASP A   4      -3.559  21.799  18.619  0.00  0.00    -0.297 N 
ATOM      4  H   ASP A   4      -2.905  21.935  17.822  0.00  0.00    +0.150 HD
ENDROOT
BRANCH   3   5
ATOM      5  CA  ASP A   4      -3.194  20.940  19.734  0.00  0.00    +0.160 C 
BRANCH   5   6
ATOM      6  C   ASP A   4      -2.870  21.672  21.030  0.00  0.00    +0.241 C 
ATOM      7  O   ASP A   4      -3.217  21.193  22.108  0.00  0.00    -0.273 OA
ATOM      8  N   ASP A   5      -2.230  22.835  20.952  0.00  0.00    -0.297 N 
ATOM      9  H   ASP A   5      -1.922  23.215  20.034  0.00  0.00    +0.150 HD
BRANCH   8  10
ATOM     10  CA  ASP A   5      -1.973  23.561  22.189  0.00  0.00    +0.160 C 
BRANCH  10  11
ATOM     11  C   ASP A   5      -3.309  24.129  22.702  0.00  0.00    +0.241 C 
ATOM     12  O   ASP A   5      -3.480  24.347  23.904  0.00  0.00    -0.273 OA
ATOM     13  N   TRP A   6      -4.258  24.363  21.789  0.00  0.00    -0.298 N 
ATOM     14  H   TRP A   6      -4.050  24.181  20.786  0.00  0.00    +0.150 HD
BRANCH  13  15
ATOM     15  CA  TRP A   6      -5.585  24.869  22.162  0.00  0.00    +0.141 C 
BRANCH  15  16
ATOM     16  C   TRP A   6      -6.309  23.760  22.945  0.00  0.00    +0.227 C 
ATOM     17  O   TRP A   6      -7.007  24.018  23.931  0.00  0.00    -0.286 OA
ENDBRANCH  15  16
BRANCH  15  18
ATOM     18  CB  TRP A   6      -6.368  25.244  20.885  0.00  0.00    +0.056 C 
BRANCH  18  19
ATOM     19  CG  TRP A   6      -7.812  25.578  21.062  0.00  0.00    -0.002 A 
ATOM     20  CD1 TRP A   6      -8.343  26.785  21.424  0.00  0.00    +0.068 A 
ATOM     21  NE1 TRP A   6      -9.715  26.723  21.416  0.00  0.00    -0.352 N 
ATOM     22  HE1 TRP A   6     -10.357  27.506  21.652  0.00  0.00    +0.166 HD
ATOM     23  CE2 TRP A   6     -10.100  25.459  21.046  0.00  0.00    +0.056 A 
ATOM     24  CZ2 TRP A   6     -11.378  24.913  20.892  0.00  0.00    +0.017 A 
ATOM     25  CH2 TRP A   6     -11.462  23.594  20.505  0.00  0.00    +0.001 A 
ATOM     26  CZ3 TRP A   6     -10.306  22.823  20.274  0.00  0.00    +0.000 A 
ATOM     27  CE3 TRP A   6      -9.038  23.362  20.426  0.00  0.00    +0.001 A 
ATOM     28  CD2 TRP A   6      -8.922  24.707  20.819  0.00  0.00    +0.013 A 
ENDBRANCH  18  19
ENDBRANCH  15  18
ENDBRANCH  13  15
ENDBRANCH  10  11
BRANCH  10  29
ATOM     29  CB  ASP A   5      -0.956  24.685  21.964  0.00  0.00    +0.143 C 
BRANCH  29  30
ATOM     30  CG  ASP A   5       0.486  24.195  22.030  0.00  0.00    +0.367 C 
ATOM     31  OD2 ASP A   5       0.723  23.002  22.343  0.00  0.00    -0.246 OA
ATOM     32  OD1 ASP A   5       1.392  25.011  21.778  0.00  0.00    -0.246 OA
ENDBRANCH  29  30
ENDBRANCH  10  29
ENDBRANCH   8  10
ENDBRANCH   5   6
BRANCH   5  33
ATOM     33  CB  ASP A   4      -2.086  19.938  19.339  0.00  0.00    +0.143 C 
BRANCH  33  34
ATOM     34  CG  ASP A   4      -0.901  20.583  18.646  0.00  0.00    +0.367 C 
ATOM     35  OD2 ASP A   4       0.241  20.134  18.903  0.00  0.00    -0.246 OA
ATOM     36  OD1 ASP A   4      -1.097  21.502  17.827  0.00  0.00    -0.246 OA
ENDBRANCH  33  34
ENDBRANCH   5  33
ENDBRANCH   3   5
BRANCH   1  37
ATOM     37  CA  TRP A   3      -5.111  23.264  17.443  0.00  0.00    +0.153 C 
BRANCH  37  40
ATOM     38  C   PHE A   2      -3.434  24.985  17.653  0.00  0.00    +0.241 C 
ATOM     39  O   PHE A   2      -3.629  25.104  18.873  0.00  0.00    -0.273 OA
ATOM     40  N   TRP A   3      -4.057  24.090  16.899  0.00  0.00    -0.297 N 
ATOM     41  H   TRP A   3      -3.783  23.981  15.902  0.00  0.00    +0.150 HD
BRANCH  38  42
ATOM     42  CA  PHE A   2      -2.419  25.835  16.915  0.00  0.00    +0.153 C 
BRANCH  42  45
ATOM     43  C   ALA A   1      -4.081  27.274  15.771  0.00  0.00    +0.238 C 
ATOM     44  O   ALA A   1      -4.657  27.600  16.804  0.00  0.00    -0.274 OA
ATOM     45  N   PHE A   2      -3.029  26.452  15.731  0.00  0.00    -0.297 N 
ATOM     46  H   PHE A   2      -2.616  26.235  14.802  0.00  0.00    +0.150 HD
BRANCH  43  47
ATOM     47  CA  ALA A   1      -4.539  27.834  14.430  0.00  0.00    +0.145 C 
ATOM     48  CB  ALA A   1      -3.553  28.927  13.979  0.00  0.00    +0.028 C 
BRANCH  47  49
ATOM     49  N   ALA A   1      -5.898  28.390  14.504  0.00  0.00    -0.238 NA
ATOM     50  H   ALA A   1      -6.317  28.578  15.437  0.00  0.00    +0.142 HD
ENDBRANCH  47  49
ENDBRANCH  43  47
ENDBRANCH  42  45
BRANCH  42  51
ATOM     51  CB  PHE A   2      -1.843  26.917  17.830  0.00  0.00    +0.055 C 
BRANCH  51  52
ATOM     52  CG  PHE A   2      -0.938  27.874  17.116  0.00  0.00    -0.020 A 
ATOM     53  CD2 PHE A   2      -1.363  29.164  16.826  0.00  0.00    -0.004 A 
ATOM     54  CE2 PHE A   2      -0.561  30.030  16.089  0.00  0.00    -0.000 A 
ATOM     55  CZ  PHE A   2       0.680  29.613  15.638  0.00  0.00    -0.000 A 
ATOM     56  CE1 PHE A   2       1.123  28.325  15.925  0.00  0.00    -0.000 A 
ATOM     57  CD1 PHE A   2       0.314  27.463  16.662  0.00  0.00    -0.004 A 
ENDBRANCH  51  52
ENDBRANCH  42  51
ENDBRANCH  38  42
ENDBRANCH  37  40
BRANCH  37  58
ATOM     58  CB  TRP A   3      -5.720  22.376  16.347  0.00  0.00    +0.057 C 
BRANCH  58  59
ATOM     59  CG  TRP A   3      -4.807  21.278  15.892  0.00  0.00    -0.002 A 
ATOM     60  CD2 TRP A   3      -4.694  19.981  16.477  0.00  0.00    +0.013 A 
ATOM     61  CE3 TRP A   3      -5.368  19.323  17.519  0.00  0.00    +0.001 A 
ATOM     62  CZ3 TRP A   3      -4.981  18.026  17.850  0.00  0.00    +0.000 A 
ATOM     63  CH2 TRP A   3      -3.940  17.380  17.157  0.00  0.00    +0.001 A 
ATOM     64  CZ2 TRP A   3      -3.271  17.994  16.135  0.00  0.00    +0.017 A 
ATOM     65  CE2 TRP A   3      -3.655  19.303  15.801  0.00  0.00    +0.056 A 
ATOM     66  NE1 TRP A   3      -3.164  20.152  14.842  0.00  0.00    -0.352 N 
ATOM     67  HE1 TRP A   3      -2.391  19.936  14.180  0.00  0.00    +0.166 HD
ATOM     68  CD1 TRP A   3      -3.864  21.339  14.900  0.00  0.00    +0.068 A 
ENDBRANCH  58  59
ENDBRANCH  37  58
ENDBRANCH   1  37
TORSDOF 22
REMARK  Name = ../refined-set-2016/2am4/2am4_pocket.pdb
REMARK  251 active torsions:
REMARK  status: ('A' for Active; 'I' for Inactive)
REMARK    1  A    between atoms: _1  and  _3
REMARK    2  A    between atoms: _3  and  _4
REMARK    3  A    between atoms: _3  and  _6
REMARK    4  A    between atoms: _6  and  _7
REMARK    5  A    between atoms: _10  and  _12
REMARK    6  A    between atoms: _12  and  _13
REMARK    7  A    between atoms: _12  and  _15
REMARK    8  A    between atoms: _18  and  _20
REMARK    9  A    between atoms: _20  and  _21
REMARK   10  A    between atoms: _20  and  _23
REMARK   11  A    between atoms: _23  and  _24
REMARK   12  A    between atoms: _27  and  _29
REMARK   13  A    between atoms: _29  and  _30
REMARK   14  A    between atoms: _33  and  _35
REMARK   15  A    between atoms: _35  and  _36
REMARK   16  A    between atoms: _35  and  _38
REMARK   17  A    between atoms: _38  and  _39
REMARK   18  A    between atoms: _39  and  _109
REMARK   19  A    between atoms: _40  and  _42
REMARK   20  A    between atoms: _42  and  _43
REMARK   21  A    between atoms: _42  and  _45
REMARK   22  A    between atoms: _45  and  _46
REMARK   23  A    between atoms: _49  and  _51
REMARK   24  A    between atoms: _51  and  _52
REMARK   25  A    between atoms: _51  and  _54
REMARK   26  A    between atoms: _54  and  _55
REMARK   27  A    between atoms: _55  and  _56
REMARK   28  A    between atoms: _56  and  _57
REMARK   29  A    between atoms: _66  and  _68
REMARK   30  A    between atoms: _68  and  _69
REMARK   31  A    between atoms: _68  and  _71
REMARK   32  A    between atoms: _74  and  _76
REMARK   33  A    between atoms: _76  and  _77
REMARK   34  A    between atoms: _76  and  _79
REMARK   35  A    between atoms: _79  and  _80
REMARK   36  A    between atoms: _82  and  _84
REMARK   37  A    between atoms: _84  and  _85
REMARK   38  A    between atoms: _84  and  _87
REMARK   39  A    between atoms: _87  and  _88
REMARK   40  A    between atoms: _88  and  _89
REMARK   41  A    between atoms: _94  and  _96
REMARK   42  A    between atoms: _96  and  _97
REMARK   43  A    between atoms: _96  and  _99
REMARK   44  A    between atoms: _99  and  _100
REMARK   45  A    between atoms: _103  and  _105
REMARK   46  A    between atoms: _105  and  _106
REMARK   47  A    between atoms: _105  and  _108
REMARK   48  A    between atoms: _108  and  _109
REMARK   49  A    between atoms: _110  and  _112
REMARK   50  A    between atoms: _112  and  _113
REMARK   51  A    between atoms: _115  and  _117
REMARK   52  A    between atoms: _117  and  _118
REMARK   53  A    between atoms: _117  and  _120
REMARK   54  A    between atoms: _120  and  _121
REMARK   55  A    between atoms: _124  and  _126
REMARK   56  A    between atoms: _126  and  _127
REMARK   57  A    between atoms: _126  and  _129
REMARK   58  A    between atoms: _129  and  _130
REMARK   59  A    between atoms: _130  and  _131
REMARK   60  A    between atoms: _136  and  _138
REMARK   61  A    between atoms: _138  and  _139
REMARK   62  A    between atoms: _138  and  _141
REMARK   63  A    between atoms: _141  and  _142
REMARK   64  A    between atoms: _145  and  _147
REMARK   65  A    between atoms: _147  and  _148
REMARK   66  A    between atoms: _147  and  _150
REMARK   67  A    between atoms: _150  and  _151
REMARK   68  A    between atoms: _154  and  _156
REMARK   69  A    between atoms: _156  and  _157
REMARK   70  A    between atoms: _156  and  _159
REMARK   71  A    between atoms: _159  and  _160
REMARK   72  A    between atoms: _166  and  _168
REMARK   73  A    between atoms: _168  and  _169
REMARK   74  A    between atoms: _168  and  _171
REMARK   75  A    between atoms: _171  and  _172
REMARK   76  A    between atoms: _172  and  _173
REMARK   77  A    between atoms: _178  and  _180
REMARK   78  A    between atoms: _180  and  _181
REMARK   79  A    between atoms: _183  and  _185
REMARK   80  A    between atoms: _185  and  _186
REMARK   81  A    between atoms: _185  and  _188
REMARK   82  A    between atoms: _188  and  _189
REMARK   83  A    between atoms: _194  and  _195
REMARK   84  A    between atoms: _197  and  _199
REMARK   85  A    between atoms: _199  and  _200
REMARK   86  A    between atoms: _199  and  _202
REMARK   87  A    between atoms: _202  and  _203
REMARK   88  A    between atoms: _208  and  _209
REMARK   89  A    between atoms: _211  and  _213
REMARK   90  A    between atoms: _213  and  _214
REMARK   91  A    between atoms: _213  and  _216
REMARK   92  A    between atoms: _216  and  _217
REMARK   93  A    between atoms: _217  and  _218
REMARK   94  A    between atoms: _218  and  _219
REMARK   95  A    between atoms: _219  and  _220
REMARK   96  A    between atoms: _224  and  _226
REMARK   97  A    between atoms: _226  and  _227
REMARK   98  A    between atoms: _226  and  _229
REMARK   99  A    between atoms: _229  and  _230
REMARK  100  A    between atoms: _233  and  _235
REMARK  101  A    between atoms: _235  and  _236
REMARK  102  A    between atoms: _239  and  _241
REMARK  103  A    between atoms: _241  and  _242
REMARK  104  A    between atoms: _241  and  _244
REMARK  105  A    between atoms: _244  and  _245
REMARK  106  A    between atoms: _245  and  _246
REMARK  107  A    between atoms: _246  and  _247
REMARK  108  A    between atoms: _256  and  _258
REMARK  109  A    between atoms: _258  and  _259
REMARK  110  A    between atoms: _258  and  _261
REMARK  111  A    between atoms: _261  and  _262
REMARK  112  A    between atoms: _267  and  _269
REMARK  113  A    between atoms: _269  and  _270
REMARK  114  A    between atoms: _269  and  _272
REMARK  115  A    between atoms: _272  and  _273
REMARK  116  A    between atoms: _278  and  _279
REMARK  117  A    between atoms: _281  and  _283
REMARK  118  A    between atoms: _283  and  _284
REMARK  119  A    between atoms: _287  and  _289
REMARK  120  A    between atoms: _289  and  _290
REMARK  121  A    between atoms: _289  and  _292
REMARK  122  A    between atoms: _295  and  _297
REMARK  123  A    between atoms: _297  and  _298
REMARK  124  A    between atoms: _297  and  _300
REMARK  125  A    between atoms: _303  and  _305
REMARK  126  A    between atoms: _305  and  _306
REMARK  127  A    between atoms: _305  and  _308
REMARK  128  A    between atoms: _308  and  _309
REMARK  129  A    between atoms: _309  and  _310
REMARK  130  A    between atoms: _313  and  _315
REMARK  131  A    between atoms: _315  and  _316
REMARK  132  A    between atoms: _315  and  _318
REMARK  133  A    between atoms: _318  and  _319
REMARK  134  A    between atoms: _322  and  _324
REMARK  135  A    between atoms: _324  and  _325
REMARK  136  A    between atoms: _324  and  _327
REMARK  137  A    between atoms: _327  and  _328
REMARK  138  A    between atoms: _328  and  _330
REMARK  139  A    between atoms: _330  and  MN_635
REMARK  140  A    between atoms: _331  and  _333
REMARK  141  A    between atoms: _333  and  _334
REMARK  142  A    between atoms: _333  and  _336
REMARK  143  A    between atoms: _336  and  _337
REMARK  144  A    between atoms: _340  and  _342
REMARK  145  A    between atoms: _342  and  _343
REMARK  146  A    between atoms: _342  and  _345
REMARK  147  A    between atoms: _345  and  _346
REMARK  148  A    between atoms: _353  and  _354
REMARK  149  A    between atoms: _359  and  _361
REMARK  150  A    between atoms: _361  and  _362
REMARK  151  A    between atoms: _364  and  _366
REMARK  152  A    between atoms: _366  and  _367
REMARK  153  A    between atoms: _366  and  _369
REMARK  154  A    between atoms: _369  and  _370
REMARK  155  A    between atoms: _373  and  _375
REMARK  156  A    between atoms: _375  and  _376
REMARK  157  A    between atoms: _378  and  _380
REMARK  158  A    between atoms: _380  and  _381
REMARK  159  A    between atoms: _380  and  _383
REMARK  160  A    between atoms: _383  and  _384
REMARK  161  A    between atoms: _394  and  _396
REMARK  162  A    between atoms: _396  and  _397
REMARK  163  A    between atoms: _400  and  _402
REMARK  164  A    between atoms: _402  and  _403
REMARK  165  A    between atoms: _402  and  _405
REMARK  166  A    between atoms: _405  and  _406
REMARK  167  A    between atoms: _412  and  _414
REMARK  168  A    between atoms: _414  and  _415
REMARK  169  A    between atoms: _414  and  _417
REMARK  170  A    between atoms: _417  and  _418
REMARK  171  A    between atoms: _428  and  _430
REMARK  172  A    between atoms: _430  and  _431
REMARK  173  A    between atoms: _430  and  _433
REMARK  174  A    between atoms: _433  and  _434
REMARK  175  A    between atoms: _437  and  _439
REMARK  176  A    between atoms: _439  and  _440
REMARK  177  A    between atoms: _439  and  _442
REMARK  178  A    between atoms: _442  and  _443
REMARK  179  A    between atoms: _446  and  _448
REMARK  180  A    between atoms: _448  and  _449
REMARK  181  A    between atoms: _448  and  _451
REMARK  182  A    between atoms: _451  and  _452
REMARK  183  A    between atoms: _462  and  _464
REMARK  184  A    between atoms: _464  and  _465
REMARK  185  A    between atoms: _464  and  _467
REMARK  186  A    between atoms: _467  and  _468
REMARK  187  A    between atoms: _468  and  _469
REMARK  188  A    between atoms: _469  and  _470
REMARK  189  A    between atoms: _479  and  _481
REMARK  190  A    between atoms: _481  and  _482
REMARK  191  A    between atoms: _481  and  _484
REMARK  192  A    between atoms: _484  and  _485
REMARK  193  A    between atoms: _488  and  _490
REMARK  194  A    between atoms: _490  and  _491
REMARK  195  A    between atoms: _490  and  _493
REMARK  196  A    between atoms: _493  and  _494
REMARK  197  A    between atoms: _500  and  _502
REMARK  198  A    between atoms: _502  and  _503
REMARK  199  A    between atoms: _505  and  _507
REMARK  200  A    between atoms: _507  and  _508
REMARK  201  A    between atoms: _507  and  _510
REMARK  202  A    between atoms: _510  and  _511
REMARK  203  A    between atoms: _511  and  _512
REMARK  204  A    between atoms: _512  and  _513
REMARK  205  A    between atoms: _522  and  _524
REMARK  206  A    between atoms: _524  and  _525
REMARK  207  A    between atoms: _524  and  _527
REMARK  208  A    between atoms: _527  and  _528
REMARK  209  A    between atoms: _528  and  _529
REMARK  210  A    between atoms: _529  and  _530
REMARK  211  A    between atoms: _530  and  _531
REMARK  212  A    between atoms: _535  and  _537
REMARK  213  A    between atoms: _537  and  _538
REMARK  214  A    between atoms: _540  and  _542
REMARK  215  A    between atoms: _542  and  _543
REMARK  216  A    between atoms: _542  and  _545
REMARK  217  A    between atoms: _548  and  _550
REMARK  218  A    between atoms: _550  and  _551
REMARK  219  A    between atoms: _550  and  _553
REMARK  220  A    between atoms: _553  and  _554
REMARK  221  A    between atoms: _556  and  _558
REMARK  222  A    between atoms: _558  and  _559
REMARK  223  A    between atoms: _558  and  _561
REMARK  224  A    between atoms: _561  and  _562
REMARK  225  A    between atoms: _567  and  _569
REMARK  226  A    between atoms: _569  and  _570
REMARK  227  A    between atoms: _572  and  _574
REMARK  228  A    between atoms: _574  and  _575
REMARK  229  A    between atoms: _574  and  _577
REMARK  230  A    between atoms: _577  and  _578
REMARK  231  A    between atoms: _584  and  _586
REMARK  232  A    between atoms: _586  and  _587
REMARK  233  A    between atoms: _586  and  _589
REMARK  234  A    between atoms: _589  and  _590
REMARK  235  A    between atoms: _596  and  _598
REMARK  236  A    between atoms: _598  and  _599
REMARK  237  A    between atoms: _598  and  _601
REMARK  238  A    between atoms: _601  and  _602
REMARK  239  A    between atoms: _605  and  _607
REMARK  240  A    between atoms: _607  and  _608
REMARK  241  A    between atoms: _607  and  _610
REMARK  242  A    between atoms: _610  and  _611
REMARK  243  A    between atoms: _611  and  _612
REMARK  244  A    between atoms: _612  and  _613
REMARK  245  A    between atoms: _613  and  _614
REMARK  246  A    between atoms: _618  and  _620
REMARK  247  A    between atoms: _620  and  _621
REMARK  248  A    between atoms: _620  and  _623
REMARK  249  A    between atoms: _623  and  _624
REMARK  250  A    between atoms: _624  and  _625
REMARK  251  A    between atoms: _625  and  _626
REMARK                            x       y       z     vdW  Elec       q    Type
REMARK                         _______ _______ _______ _____ _____    ______ ____
ROOT
ATOM      1  NE  ARG A   1      -0.424  19.141  23.932  0.00  0.00    -0.265 N 
ATOM      2  HE  ARG A   1      -0.519  18.248  24.457  0.00  0.00    +0.259 HD
ATOM      3  CZ  ARG A   1      -0.046  19.073  22.660  0.00  0.00    +0.342 C 
ATOM      4  NH2 ARG A   1       0.107  17.890  22.077  0.00  0.00    -0.292 N 
ATOM      5 HH21 ARG A   1      -0.069  17.018  22.616  0.00  0.00    +0.255 HD
ATOM      6 HH22 ARG A   1       0.403  17.835  21.081  0.00  0.00    +0.255 HD
ATOM      7  NH1 ARG A   1       0.114  20.183  21.949  0.00  0.00    -0.292 N 
ATOM      8 HH11 ARG A   1      -0.057  21.110  22.387  0.00  0.00    +0.255 HD
ATOM      9 HH12 ARG A   1       0.410  20.125  20.954  0.00  0.00    +0.255 HD
ENDROOT
BRANCH   1  10
ATOM     10  CD  ARG A   1      -0.716  20.386  24.646  0.00  0.00    +0.174 C 
BRANCH  10  11
ATOM     11  CG  ARG A   1      -2.196  20.372  25.041  0.00  0.00    +0.045 C 
BRANCH  11  12
ATOM     12  CB  ARG A   1      -2.684  21.603  25.810  0.00  0.00    +0.029 C 
BRANCH  12  13
ATOM     13  CA  ARG A   1      -4.205  21.551  26.044  0.00  0.00    +0.133 C 
BRANCH  13  14
ATOM     14  N   ARG A   1      -4.909  21.661  24.764  0.00  0.00    -0.239 NA
ATOM     15  H   ARG A   1      -4.409  22.068  23.948  0.00  0.00    +0.142 HD
ENDBRANCH  13  14
BRANCH  13  16
ATOM     16  C   ARG A   1      -4.643  22.602  27.077  0.00  0.00    +0.224 C 
ATOM     17  O   ARG A   1      -4.298  22.515  28.257  0.00  0.00    -0.287 OA
ENDBRANCH  13  16
ENDBRANCH  12  13
ENDBRANCH  11  12
ENDBRANCH  10  11
ENDBRANCH   1  10
TORSDOF 6
REMARK  Name = ../refined-set-2016/2am4/2am4_pocket.pdb
REMARK  251 active torsions:
REMARK  status: ('A' for Active; 'I' for Inactive)
REMARK    1  A    between atoms: _1  and  _3
REMARK    2  A    between atoms: _3  and  _4
REMARK    3  A    between atoms: _3  and  _6
REMARK    4  A    between atoms: _6  and  _7
REMARK    5  A    between atoms: _10  and  _12
REMARK    6  A    between atoms: _12  and  _13
REMARK    7  A    between atoms: _12  and  _15
REMARK    8  A    between atoms: _18  and  _20
REMARK    9  A    between atoms: _20  and  _21
REMARK   10  A    between atoms: _20  and  _23
REMARK   11  A    between atoms: _23  and  _24
REMARK   12  A    between atoms: _27  and  _29
REMARK   13  A    between atoms: _29  and  _30
REMARK   14  A    between atoms: _33  and  _35
REMARK   15  A    between atoms: _35  and  _36
REMARK   16  A    between atoms: _35  and  _38
REMARK   17  A    between atoms: _38  and  _39
REMARK   18  A    between atoms: _39  and  _109
REMARK   19  A    between atoms: _40  and  _42
REMARK   20  A    between atoms: _42  and  _43
REMARK   21  A    between atoms: _42  and  _45
REMARK   22  A    between atoms: _45  and  _46
REMARK   23  A    between atoms: _49  and  _51
REMARK   24  A    between atoms: _51  and  _52
REMARK   25  A    between atoms: _51  and  _54
REMARK   26  A    between atoms: _54  and  _55
REMARK   27  A    between atoms: _55  and  _56
REMARK   28  A    between atoms: _56  and  _57
REMARK   29  A    between atoms: _66  and  _68
REMARK   30  A    between atoms: _68  and  _69
REMARK   31  A    between atoms: _68  and  _71
REMARK   32  A    between atoms: _74  and  _76
REMARK   33  A    between atoms: _76  and  _77
REMARK   34  A    between atoms: _76  and  _79
REMARK   35  A    between atoms: _79  and  _80
REMARK   36  A    between atoms: _82  and  _84
REMARK   37  A    between atoms: _84  and  _85
REMARK   38  A    between atoms: _84  and  _87
REMARK   39  A    between atoms: _87  and  _88
REMARK   40  A    between atoms: _88  and  _89
REMARK   41  A    between atoms: _94  and  _96
REMARK   42  A    between atoms: _96  and  _97
REMARK   43  A    between atoms: _96  and  _99
REMARK   44  A    between atoms: _99  and  _100
REMARK   45  A    between atoms: _103  and  _105
REMARK   46  A    between atoms: _105  and  _106
REMARK   47  A    between atoms: _105  and  _108
REMARK   48  A    between atoms: _108  and  _109
REMARK   49  A    between atoms: _110  and  _112
REMARK   50  A    between atoms: _112  and  _113
REMARK   51  A    between atoms: _115  and  _117
REMARK   52  A    between atoms: _117  and  _118
REMARK   53  A    between atoms: _117  and  _120
REMARK   54  A    between atoms: _120  and  _121
REMARK   55  A    between atoms: _124  and  _126
REMARK   56  A    between atoms: _126  and  _127
REMARK   57  A    between atoms: _126  and  _129
REMARK   58  A    between atoms: _129  and  _130
REMARK   59  A    between atoms: _130  and  _131
REMARK   60  A    between atoms: _136  and  _138
REMARK   61  A    between atoms: _138  and  _139
REMARK   62  A    between atoms: _138  and  _141
REMARK   63  A    between atoms: _141  and  _142
REMARK   64  A    between atoms: _145  and  _147
REMARK   65  A    between atoms: _147  and  _148
REMARK   66  A    between atoms: _147  and  _150
REMARK   67  A    between atoms: _150  and  _151
REMARK   68  A    between atoms: _154  and  _156
REMARK   69  A    between atoms: _156  and  _157
REMARK   70  A    between atoms: _156  and  _159
REMARK   71  A    between atoms: _159  and  _160
REMARK   72  A    between atoms: _166  and  _168
REMARK   73  A    between atoms: _168  and  _169
REMARK   74  A    between atoms: _168  and  _171
REMARK   75  A    between atoms: _171  and  _172
REMARK   76  A    between atoms: _172  and  _173
REMARK   77  A    between atoms: _178  and  _180
REMARK   78  A    between atoms: _180  and  _181
REMARK   79  A    between atoms: _183  and  _185
REMARK   80  A    between atoms: _185  and  _186
REMARK   81  A    between atoms: _185  and  _188
REMARK   82  A    between atoms: _188  and  _189
REMARK   83  A    between atoms: _194  and  _195
REMARK   84  A    between atoms: _197  and  _199
REMARK   85  A    between atoms: _199  and  _200
REMARK   86  A    between atoms: _199  and  _202
REMARK   87  A    between atoms: _202  and  _203
REMARK   88  A    between atoms: _208  and  _209
REMARK   89  A    between atoms: _211  and  _213
REMARK   90  A    between atoms: _213  and  _214
REMARK   91  A    between atoms: _213  and  _216
REMARK   92  A    between atoms: _216  and  _217
REMARK   93  A    between atoms: _217  and  _218
REMARK   94  A    between atoms: _218  and  _219
REMARK   95  A    between atoms: _219  and  _220
REMARK   96  A    between atoms: _224  and  _226
REMARK   97  A    between atoms: _226  and  _227
REMARK   98  A    between atoms: _226  and  _229
REMARK   99  A    between atoms: _229  and  _230
REMARK  100  A    between atoms: _233  and  _235
REMARK  101  A    between atoms: _235  and  _236
REMARK  102  A    between atoms: _239  and  _241
REMARK  103  A    between atoms: _241  and  _242
REMARK  104  A    between atoms: _241  and  _244
REMARK  105  A    between atoms: _244  and  _245
REMARK  106  A    between atoms: _245  and  _246
REMARK  107  A    between atoms: _246  and  _247
REMARK  108  A    between atoms: _256  and  _258
REMARK  109  A    between atoms: _258  and  _259
REMARK  110  A    between atoms: _258  and  _261
REMARK  111  A    between atoms: _261  and  _262
REMARK  112  A    between atoms: _267  and  _269
REMARK  113  A    between atoms: _269  and  _270
REMARK  114  A    between atoms: _269  and  _272
REMARK  115  A    between atoms: _272  and  _273
REMARK  116  A    between atoms: _278  and  _279
REMARK  117  A    between atoms: _281  and  _283
REMARK  118  A    between atoms: _283  and  _284
REMARK  119  A    between atoms: _287  and  _289
REMARK  120  A    between atoms: _289  and  _290
REMARK  121  A    between atoms: _289  and  _292
REMARK  122  A    between atoms: _295  and  _297
REMARK  123  A    between atoms: _297  and  _298
REMARK  124  A    between atoms: _297  and  _300
REMARK  125  A    between atoms: _303  and  _305
REMARK  126  A    between atoms: _305  and  _306
REMARK  127  A    between atoms: _305  and  _308
REMARK  128  A    between atoms: _308  and  _309
REMARK  129  A    between atoms: _309  and  _310
REMARK  130  A    between atoms: _313  and  _315
REMARK  131  A    between atoms: _315  and  _316
REMARK  132  A    between atoms: _315  and  _318
REMARK  133  A    between atoms: _318  and  _319
REMARK  134  A    between atoms: _322  and  _324
REMARK  135  A    between atoms: _324  and  _325
REMARK  136  A    between atoms: _324  and  _327
REMARK  137  A    between atoms: _327  and  _328
REMARK  138  A    between atoms: _328  and  _330
REMARK  139  A    between atoms: _330  and  MN_635
REMARK  140  A    between atoms: _331  and  _333
REMARK  141  A    between atoms: _333  and  _334
REMARK  142  A    between atoms: _333  and  _336
REMARK  143  A    between atoms: _336  and  _337
REMARK  144  A    between atoms: _340  and  _342
REMARK  145  A    between atoms: _342  and  _343
REMARK  146  A    between atoms: _342  and  _345
REMARK  147  A    between atoms: _345  and  _346
REMARK  148  A    between atoms: _353  and  _354
REMARK  149  A    between atoms: _359  and  _361
REMARK  150  A    between atoms: _361  and  _362
REMARK  151  A    between atoms: _364  and  _366
REMARK  152  A    between atoms: _366  and  _367
REMARK  153  A    between atoms: _366  and  _369
REMARK  154  A    between atoms: _369  and  _370
REMARK  155  A    between atoms: _373  and  _375
REMARK  156  A    between atoms: _375  and  _376
REMARK  157  A    between atoms: _378  and  _380
REMARK  158  A    between atoms: _380  and  _381
REMARK  159  A    between atoms: _380  and  _383
REMARK  160  A    between atoms: _383  and  _384
REMARK  161  A    between atoms: _394  and  _396
REMARK  162  A    between atoms: _396  and  _397
REMARK  163  A    between atoms: _400  and  _402
REMARK  164  A    between atoms: _402  and  _403
REMARK  165  A    between atoms: _402  and  _405
REMARK  166  A    between atoms: _405  and  _406
REMARK  167  A    between atoms: _412  and  _414
REMARK  168  A    between atoms: _414  and  _415
REMARK  169  A    between atoms: _414  and  _417
REMARK  170  A    between atoms: _417  and  _418
REMARK  171  A    between atoms: _428  and  _430
REMARK  172  A    between atoms: _430  and  _431
REMARK  173  A    between atoms: _430  and  _433
REMARK  174  A    between atoms: _433  and  _434
REMARK  175  A    between atoms: _437  and  _439
REMARK  176  A    between atoms: _439  and  _440
REMARK  177  A    between atoms: _439  and  _442
REMARK  178  A    between atoms: _442  and  _443
REMARK  179  A    between atoms: _446  and  _448
REMARK  180  A    between atoms: _448  and  _449
REMARK  181  A    between atoms: _448  and  _451
REMARK  182  A    between atoms: _451  and  _452
REMARK  183  A    between atoms: _462  and  _464
REMARK  184  A    between atoms: _464  and  _465
REMARK  185  A    between atoms: _464  and  _467
REMARK  186  A    between atoms: _467  and  _468
REMARK  187  A    between atoms: _468  and  _469
REMARK  188  A    between atoms: _469  and  _470
REMARK  189  A    between atoms: _479  and  _481
REMARK  190  A    between atoms: _481  and  _482
REMARK  191  A    between atoms: _481  and  _484
REMARK  192  A    between atoms: _484  and  _485
REMARK  193  A    between atoms: _488  and  _490
REMARK  194  A    between atoms: _490  and  _491
REMARK  195  A    between atoms: _490  and  _493
REMARK  196  A    between atoms: _493  and  _494
REMARK  197  A    between atoms: _500  and  _502
REMARK  198  A    between atoms: _502  and  _503
REMARK  199  A    between atoms: _505  and  _507
REMARK  200  A    between atoms: _507  and  _508
REMARK  201  A    between atoms: _507  and  _510
REMARK  202  A    between atoms: _510  and  _511
REMARK  203  A    between atoms: _511  and  _512
REMARK  204  A    between atoms: _512  and  _513
REMARK  205  A    between atoms: _522  and  _524
REMARK  206  A    between atoms: _524  and  _525
REMARK  207  A    between atoms: _524  and  _527
REMARK  208  A    between atoms: _527  and  _528
REMARK  209  A    between atoms: _528  and  _529
REMARK  210  A    between atoms: _529  and  _530
REMARK  211  A    between atoms: _530  and  _531
REMARK  212  A    between atoms: _535  and  _537
REMARK  213  A    between atoms: _537  and  _538
REMARK  214  A    between atoms: _540  and  _542
REMARK  215  A    between atoms: _542  and  _543
REMARK  216  A    between atoms: _542  and  _545
REMARK  217  A    between atoms: _548  and  _550
REMARK  218  A    between atoms: _550  and  _551
REMARK  219  A    between atoms: _550  and  _553
REMARK  220  A    between atoms: _553  and  _554
REMARK  221  A    between atoms: _556  and  _558
REMARK  222  A    between atoms: _558  and  _559
REMARK  223  A    between atoms: _558  and  _561
REMARK  224  A    between atoms: _561  and  _562
REMARK  225  A    between atoms: _567  and  _569
REMARK  226  A    between atoms: _569  and  _570
REMARK  227  A    between atoms: _572  and  _574
REMARK  228  A    between atoms: _574  and  _575
REMARK  229  A    between atoms: _574  and  _577
REMARK  230  A    between atoms: _577  and  _578
REMARK  231  A    between atoms: _584  and  _586
REMARK  232  A    between atoms: _586  and  _587
REMARK  233  A    between atoms: _586  and  _589
REMARK  234  A    between atoms: _589  and  _590
REMARK  235  A    between atoms: _596  and  _598
REMARK  236  A    between atoms: _598  and  _599
REMARK  237  A    between atoms: _598  and  _601
REMARK  238  A    between atoms: _601  and  _602
REMARK  239  A    between atoms: _605  and  _607
REMARK  240  A    between atoms: _607  and  _608
REMARK  241  A    between atoms: _607  and  _610
REMARK  242  A    between atoms: _610  and  _611
REMARK  243  A    between atoms: _611  and  _612
REMARK  244  A    between atoms: _612  and  _613
REMARK  245  A    between atoms: _613  and  _614
REMARK  246  A    between atoms: _618  and  _620
REMARK  247  A    between atoms: _620  and  _621
REMARK  248  A    between atoms: _620  and  _623
REMARK  249  A    between atoms: _623  and  _624
REMARK  250  A    between atoms: _624  and  _625
REMARK  251  A    between atoms: _625  and  _626
REMARK                            x       y       z     vdW  Elec       q    Type
REMARK                         _______ _______ _______ _____ _____    ______ ____
ROOT
ATOM      1  CA  LYS A   5      11.047  18.506   7.436  0.00  0.00    +0.149 C 
ENDROOT
BRANCH   1   4
ATOM      2  C   ARG A   4      11.823  17.373   9.453  0.00  0.00    +0.241 C 
ATOM      3  O   ARG A   4      11.812  18.412  10.112  0.00  0.00    -0.273 OA
ATOM      4  N   LYS A   5      11.489  17.318   8.167  0.00  0.00    -0.297 N 
ATOM      5  H   LYS A   5      11.543  16.407   7.668  0.00  0.00    +0.150 HD
BRANCH   2   6
ATOM      6  CA  ARG A   4      12.219  16.051  10.094  0.00  0.00    +0.149 C 
BRANCH   6   9
ATOM      7  C   GLY A   3       9.992  15.131  10.035  0.00  0.00    +0.243 C 
ATOM      8  O   GLY A   3       9.559  16.105  10.655  0.00  0.00    -0.273 OA
ATOM      9  N   ARG A   4      11.274  15.015   9.701  0.00  0.00    -0.297 N 
ATOM     10  H   ARG A   4      11.600  14.188   9.161  0.00  0.00    +0.150 HD
BRANCH   7  11
ATOM     11  CA  GLY A   3       9.056  14.016   9.598  0.00  0.00    +0.176 C 
BRANCH  11  13
ATOM     12  C   PHE A   2      10.131  11.866   9.950  0.00  0.00    +0.241 C 
ATOM     13  N   GLY A   3       9.205  12.752  10.309  0.00  0.00    -0.295 N 
ATOM     14  H   GLY A   3       8.577  12.539  11.110  0.00  0.00    +0.150 HD
ATOM     15  O   PHE A   2      10.931  12.068   9.042  0.00  0.00    -0.273 OA
BRANCH  12  16
ATOM     16  CA  PHE A   2      10.178  10.571  10.765  0.00  0.00    +0.153 C 
BRANCH  16  19
ATOM     17  C   THR A   1       9.100  10.444  12.956  0.00  0.00    +0.241 C 
ATOM     18  O   THR A   1      10.184  10.390  13.554  0.00  0.00    -0.274 OA
ATOM     19  N   PHE A   2       9.001  10.486  11.631  0.00  0.00    -0.297 N 
ATOM     20  H   PHE A   2       8.057  10.458  11.196  0.00  0.00    +0.150 HD
BRANCH  17  21
ATOM     21  CA  THR A   1       7.778  10.409  13.711  0.00  0.00    +0.172 C 
BRANCH  21  22
ATOM     22  N   THR A   1       7.835   9.495  14.844  0.00  0.00    -0.236 NA
ATOM     23  H   THR A   1       8.263   9.782  15.747  0.00  0.00    +0.142 HD
ENDBRANCH  21  22
BRANCH  21  24
ATOM     24  CB  THR A   1       7.374  11.862  14.127  0.00  0.00    +0.135 C 
ATOM     25  CG2 THR A   1       8.291  12.405  15.212  0.00  0.00    +0.034 C 
BRANCH  24  26
ATOM     26  OG1 THR A   1       7.445  12.724  12.974  0.00  0.00    -0.383 OA
ATOM     27  HG1 THR A   1       7.190  13.644  13.235  0.00  0.00    +0.210 HD
ENDBRANCH  24  26
ENDBRANCH  21  24
ENDBRANCH  17  21
ENDBRANCH  16  19
BRANCH  16  28
ATOM     28  CB  PHE A   2      10.266   9.341   9.839  0.00  0.00    +0.055 C 
BRANCH  28  29
ATOM     29  CG  PHE A   2       9.034   9.088   9.015  0.00  0.00    -0.020 A 
ATOM     30  CD2 PHE A   2       8.121   8.109   9.399  0.00  0.00    -0.004 A 
ATOM     31  CE2 PHE A   2       6.983   7.859   8.645  0.00  0.00    -0.000 A 
ATOM     32  CZ  PHE A   2       6.738   8.594   7.480  0.00  0.00    -0.000 A 
ATOM     33  CE1 PHE A   2       7.639   9.573   7.085  0.00  0.00    -0.000 A 
ATOM     34  CD1 PHE A   2       8.784   9.818   7.858  0.00  0.00    -0.004 A 
ENDBRANCH  28  29
ENDBRANCH  16  28
ENDBRANCH  12  16
ENDBRANCH  11  13
ENDBRANCH   7  11
ENDBRANCH   6   9
BRANCH   6  35
ATOM     35  CB  ARG A   4      13.644  15.681   9.686  0.00  0.00    +0.033 C 
BRANCH  35  36
ATOM     36  CG  ARG A   4      14.652  16.734  10.106  0.00  0.00    +0.045 C 
BRANCH  36  37
ATOM     37  CD  ARG A   4      16.082  16.273   9.936  0.00  0.00    +0.174 C 
BRANCH  37  38
ATOM     38  NE  ARG A   4      16.983  17.272  10.496  0.00  0.00    -0.265 N 
ATOM     39  HE  ARG A   4      17.039  17.349  11.532  0.00  0.00    +0.259 HD
ATOM     40  CZ  ARG A   4      17.737  18.090   9.771  0.00  0.00    +0.342 C 
ATOM     41  NH2 ARG A   4      18.487  18.999  10.375  0.00  0.00    -0.292 N 
ATOM     42 HH21 ARG A   4      18.484  19.070  11.413  0.00  0.00    +0.255 HD
ATOM     43 HH22 ARG A   4      19.079  19.642   9.812  0.00  0.00    +0.255 HD
ATOM     44  NH1 ARG A   4      17.714  18.021   8.448  0.00  0.00    -0.292 N 
ATOM     45 HH11 ARG A   4      17.104  17.325   7.974  0.00  0.00    +0.255 HD
ATOM     46 HH12 ARG A   4      18.306  18.663   7.883  0.00  0.00    +0.255 HD
ENDBRANCH  37  38
ENDBRANCH  36  37
ENDBRANCH  35  36
ENDBRANCH   6  35
ENDBRANCH   2   6
ENDBRANCH   1   4
BRANCH   1  47
ATOM     47  C   LYS A   5       9.519  18.532   7.432  0.00  0.00    +0.241 C 
ATOM     48  N   GLY A   6       8.954  19.663   7.842  0.00  0.00    -0.295 N 
ATOM     49  H   GLY A   6       9.554  20.457   8.143  0.00  0.00    +0.150 HD
ATOM     50  O   LYS A   5       8.867  17.546   7.069  0.00  0.00    -0.273 OA
BRANCH  48  51
ATOM     51  CA  GLY A   6       7.509  19.804   7.875  0.00  0.00    +0.176 C 
BRANCH  51  52
ATOM     52  C   GLY A   6       7.124  21.251   8.112  0.00  0.00    +0.243 C 
ATOM     53  N   VAL A   7       5.921  21.468   8.627  0.00  0.00    -0.297 N 
ATOM     54  H   VAL A   7       5.309  20.657   8.850  0.00  0.00    +0.150 HD
ATOM     55  O   GLY A   6       7.914  22.165   7.852  0.00  0.00    -0.273 OA
BRANCH  53  56
ATOM     56  CA  VAL A   7       5.437  22.826   8.888  0.00  0.00    +0.149 C 
BRANCH  56  57
ATOM     57  C   VAL A   7       6.286  23.570   9.916  0.00  0.00    +0.241 C 
ATOM     58  N   SER A   8       6.609  22.918  11.025  0.00  0.00    -0.295 N 
ATOM     59  H   SER A   8       6.286  21.939  11.163  0.00  0.00    +0.150 HD
ATOM     60  O   VAL A   7       6.663  24.720   9.697  0.00  0.00    -0.273 OA
BRANCH  58  61
ATOM     61  CA  SER A   8       7.416  23.569  12.053  0.00  0.00    +0.178 C 
BRANCH  61  62
ATOM     62  C   SER A   8       8.912  23.368  11.822  0.00  0.00    +0.243 C 
ATOM     63  N   HIS A   9       9.700  24.305  12.343  0.00  0.00    -0.297 N 
ATOM     64  H   HIS A   9       9.265  25.102  12.851  0.00  0.00    +0.150 HD
ATOM     65  O   SER A   8       9.340  22.392  11.186  0.00  0.00    -0.273 OA
BRANCH  63  66
ATOM     66  CA  HIS A   9      11.151  24.252  12.226  0.00  0.00    +0.155 C 
BRANCH  66  67
ATOM     67  C   HIS A   9      11.592  22.914  12.806  0.00  0.00    +0.241 C 
ATOM     68  O   HIS A   9      11.007  22.430  13.769  0.00  0.00    -0.273 OA
ATOM     69  N   GLY A  10      12.627  22.322  12.227  0.00  0.00    -0.296 N 
ATOM     70  H   GLY A  10      13.118  22.788  11.437  0.00  0.00    +0.150 HD
BRANCH  69  71
ATOM     71  CA  GLY A  10      13.074  21.024  12.696  0.00  0.00    +0.163 C 
BRANCH  71  72
ATOM     72  C   GLY A  10      13.864  20.907  13.988  0.00  0.00    +0.229 C 
ATOM     73  O   GLY A  10      14.313  19.809  14.305  0.00  0.00    -0.286 OA
ENDBRANCH  71  72
ENDBRANCH  69  71
ENDBRANCH  66  67
BRANCH  66  74
ATOM     74  CB  HIS A   9      11.779  25.415  13.005  0.00  0.00    +0.076 C 
BRANCH  74  75
ATOM     75  CG  HIS A   9      13.263  25.529  12.830  0.00  0.00    +0.082 A 
ATOM     76  ND1 HIS A   9      14.160  24.767  13.549  0.00  0.00    -0.227 NA
ATOM     77  CE1 HIS A   9      15.391  25.062  13.166  0.00  0.00    +0.199 A 
ATOM     78  NE2 HIS A   9      15.324  25.989  12.226  0.00  0.00    -0.221 NA
ATOM     79  CD2 HIS A   9      14.005  26.298  11.998  0.00  0.00    +0.115 A 
ENDBRANCH  74  75
ENDBRANCH  66  74
ENDBRANCH  63  66
ENDBRANCH  61  62
BRANCH  61  80
ATOM     80  CB  SER A   8       7.038  23.041  13.441  0.00  0.00    +0.166 C 
BRANCH  80  81
ATOM     81  OG  SER A   8       7.455  21.695  13.600  0.00  0.00    -0.380 OA
ATOM     82  H   SER A   8       7.017  21.132  12.914  0.00  0.00    +0.211 HD
ENDBRANCH  80  81
ENDBRANCH  61  80
ENDBRANCH  58  61
ENDBRANCH  56  57
BRANCH  56  83
ATOM     83  CB  VAL A   7       3.962  22.805   9.353  0.00  0.00    +0.027 C 
ATOM     84  CG2 VAL A   7       3.545  24.190   9.874  0.00  0.00    +0.002 C 
ATOM     85  CG1 VAL A   7       3.064  22.384   8.185  0.00  0.00    +0.002 C 
ENDBRANCH  56  83
ENDBRANCH  53  56
ENDBRANCH  51  52
ENDBRANCH  48  51
ENDBRANCH   1  47
BRANCH   1  86
ATOM     86  CB  LYS A   5      11.563  18.487   5.989  0.00  0.00    +0.029 C 
BRANCH  86  87
ATOM     87  CG  LYS A   5      10.855  19.483   5.057  0.00  0.00    +0.000 C 
BRANCH  87  88
ATOM     88  CD  LYS A   5      11.189  20.922   5.425  0.00  0.00    -0.024 C 
BRANCH  88  89
ATOM     89  CE  LYS A   5      10.445  21.914   4.541  0.00  0.00    -0.086 C 
BRANCH  89  90
ATOM     90  NZ  LYS A   5       8.968  21.879   4.795  0.00  0.00    +0.380 N 
ATOM     91  HZ1 LYS A   5       8.783  22.121   5.789  0.00  0.00    -0.089 HD
ATOM     92  HZ2 LYS A   5       8.606  20.925   4.596  0.00  0.00    -0.089 HD
ATOM     93  HZ3 LYS A   5       8.495  22.567   4.175  0.00  0.00    -0.089 HD
ENDBRANCH  89  90
ENDBRANCH  88  89
ENDBRANCH  87  88
ENDBRANCH  86  87
ENDBRANCH   1  86
TORSDOF 38
REMARK  Name = ../refined-set-2016/2am4/2am4_pocket.pdb
REMARK  251 active torsions:
REMARK  status: ('A' for Active; 'I' for Inactive)
REMARK    1  A    between atoms: _1  and  _3
REMARK    2  A    between atoms: _3  and  _4
REMARK    3  A    between atoms: _3  and  _6
REMARK    4  A    between atoms: _6  and  _7
REMARK    5  A    between atoms: _10  and  _12
REMARK    6  A    between atoms: _12  and  _13
REMARK    7  A    between atoms: _12  and  _15
REMARK    8  A    between atoms: _18  and  _20
REMARK    9  A    between atoms: _20  and  _21
REMARK   10  A    between atoms: _20  and  _23
REMARK   11  A    between atoms: _23  and  _24
REMARK   12  A    between atoms: _27  and  _29
REMARK   13  A    between atoms: _29  and  _30
REMARK   14  A    between atoms: _33  and  _35
REMARK   15  A    between atoms: _35  and  _36
REMARK   16  A    between atoms: _35  and  _38
REMARK   17  A    between atoms: _38  and  _39
REMARK   18  A    between atoms: _39  and  _109
REMARK   19  A    between atoms: _40  and  _42
REMARK   20  A    between atoms: _42  and  _43
REMARK   21  A    between atoms: _42  and  _45
REMARK   22  A    between atoms: _45  and  _46
REMARK   23  A    between atoms: _49  and  _51
REMARK   24  A    between atoms: _51  and  _52
REMARK   25  A    between atoms: _51  and  _54
REMARK   26  A    between atoms: _54  and  _55
REMARK   27  A    between atoms: _55  and  _56
REMARK   28  A    between atoms: _56  and  _57
REMARK   29  A    between atoms: _66  and  _68
REMARK   30  A    between atoms: _68  and  _69
REMARK   31  A    between atoms: _68  and  _71
REMARK   32  A    between atoms: _74  and  _76
REMARK   33  A    between atoms: _76  and  _77
REMARK   34  A    between atoms: _76  and  _79
REMARK   35  A    between atoms: _79  and  _80
REMARK   36  A    between atoms: _82  and  _84
REMARK   37  A    between atoms: _84  and  _85
REMARK   38  A    between atoms: _84  and  _87
REMARK   39  A    between atoms: _87  and  _88
REMARK   40  A    between atoms: _88  and  _89
REMARK   41  A    between atoms: _94  and  _96
REMARK   42  A    between atoms: _96  and  _97
REMARK   43  A    between atoms: _96  and  _99
REMARK   44  A    between atoms: _99  and  _100
REMARK   45  A    between atoms: _103  and  _105
REMARK   46  A    between atoms: _105  and  _106
REMARK   47  A    between atoms: _105  and  _108
REMARK   48  A    between atoms: _108  and  _109
REMARK   49  A    between atoms: _110  and  _112
REMARK   50  A    between atoms: _112  and  _113
REMARK   51  A    between atoms: _115  and  _117
REMARK   52  A    between atoms: _117  and  _118
REMARK   53  A    between atoms: _117  and  _120
REMARK   54  A    between atoms: _120  and  _121
REMARK   55  A    between atoms: _124  and  _126
REMARK   56  A    between atoms: _126  and  _127
REMARK   57  A    between atoms: _126  and  _129
REMARK   58  A    between atoms: _129  and  _130
REMARK   59  A    between atoms: _130  and  _131
REMARK   60  A    between atoms: _136  and  _138
REMARK   61  A    between atoms: _138  and  _139
REMARK   62  A    between atoms: _138  and  _141
REMARK   63  A    between atoms: _141  and  _142
REMARK   64  A    between atoms: _145  and  _147
REMARK   65  A    between atoms: _147  and  _148
REMARK   66  A    between atoms: _147  and  _150
REMARK   67  A    between atoms: _150  and  _151
REMARK   68  A    between atoms: _154  and  _156
REMARK   69  A    between atoms: _156  and  _157
REMARK   70  A    between atoms: _156  and  _159
REMARK   71  A    between atoms: _159  and  _160
REMARK   72  A    between atoms: _166  and  _168
REMARK   73  A    between atoms: _168  and  _169
REMARK   74  A    between atoms: _168  and  _171
REMARK   75  A    between atoms: _171  and  _172
REMARK   76  A    between atoms: _172  and  _173
REMARK   77  A    between atoms: _178  and  _180
REMARK   78  A    between atoms: _180  and  _181
REMARK   79  A    between atoms: _183  and  _185
REMARK   80  A    between atoms: _185  and  _186
REMARK   81  A    between atoms: _185  and  _188
REMARK   82  A    between atoms: _188  and  _189
REMARK   83  A    between atoms: _194  and  _195
REMARK   84  A    between atoms: _197  and  _199
REMARK   85  A    between atoms: _199  and  _200
REMARK   86  A    between atoms: _199  and  _202
REMARK   87  A    between atoms: _202  and  _203
REMARK   88  A    between atoms: _208  and  _209
REMARK   89  A    between atoms: _211  and  _213
REMARK   90  A    between atoms: _213  and  _214
REMARK   91  A    between atoms: _213  and  _216
REMARK   92  A    between atoms: _216  and  _217
REMARK   93  A    between atoms: _217  and  _218
REMARK   94  A    between atoms: _218  and  _219
REMARK   95  A    between atoms: _219  and  _220
REMARK   96  A    between atoms: _224  and  _226
REMARK   97  A    between atoms: _226  and  _227
REMARK   98  A    between atoms: _226  and  _229
REMARK   99  A    between atoms: _229  and  _230
REMARK  100  A    between atoms: _233  and  _235
REMARK  101  A    between atoms: _235  and  _236
REMARK  102  A    between atoms: _239  and  _241
REMARK  103  A    between atoms: _241  and  _242
REMARK  104  A    between atoms: _241  and  _244
REMARK  105  A    between atoms: _244  and  _245
REMARK  106  A    between atoms: _245  and  _246
REMARK  107  A    between atoms: _246  and  _247
REMARK  108  A    between atoms: _256  and  _258
REMARK  109  A    between atoms: _258  and  _259
REMARK  110  A    between atoms: _258  and  _261
REMARK  111  A    between atoms: _261  and  _262
REMARK  112  A    between atoms: _267  and  _269
REMARK  113  A    between atoms: _269  and  _270
REMARK  114  A    between atoms: _269  and  _272
REMARK  115  A    between atoms: _272  and  _273
REMARK  116  A    between atoms: _278  and  _279
REMARK  117  A    between atoms: _281  and  _283
REMARK  118  A    between atoms: _283  and  _284
REMARK  119  A    between atoms: _287  and  _289
REMARK  120  A    between atoms: _289  and  _290
REMARK  121  A    between atoms: _289  and  _292
REMARK  122  A    between atoms: _295  and  _297
REMARK  123  A    between atoms: _297  and  _298
REMARK  124  A    between atoms: _297  and  _300
REMARK  125  A    between atoms: _303  and  _305
REMARK  126  A    between atoms: _305  and  _306
REMARK  127  A    between atoms: _305  and  _308
REMARK  128  A    between atoms: _308  and  _309
REMARK  129  A    between atoms: _309  and  _310
REMARK  130  A    between atoms: _313  and  _315
REMARK  131  A    between atoms: _315  and  _316
REMARK  132  A    between atoms: _315  and  _318
REMARK  133  A    between atoms: _318  and  _319
REMARK  134  A    between atoms: _322  and  _324
REMARK  135  A    between atoms: _324  and  _325
REMARK  136  A    between atoms: _324  and  _327
REMARK  137  A    between atoms: _327  and  _328
REMARK  138  A    between atoms: _328  and  _330
REMARK  139  A    between atoms: _330  and  MN_635
REMARK  140  A    between atoms: _331  and  _333
REMARK  141  A    between atoms: _333  and  _334
REMARK  142  A    between atoms: _333  and  _336
REMARK  143  A    between atoms: _336  and  _337
REMARK  144  A    between atoms: _340  and  _342
REMARK  145  A    between atoms: _342  and  _343
REMARK  146  A    between atoms: _342  and  _345
REMARK  147  A    between atoms: _345  and  _346
REMARK  148  A    between atoms: _353  and  _354
REMARK  149  A    between atoms: _359  and  _361
REMARK  150  A    between atoms: _361  and  _362
REMARK  151  A    between atoms: _364  and  _366
REMARK  152  A    between atoms: _366  and  _367
REMARK  153  A    between atoms: _366  and  _369
REMARK  154  A    between atoms: _369  and  _370
REMARK  155  A    between atoms: _373  and  _375
REMARK  156  A    between atoms: _375  and  _376
REMARK  157  A    between atoms: _378  and  _380
REMARK  158  A    between atoms: _380  and  _381
REMARK  159  A    between atoms: _380  and  _383
REMARK  160  A    between atoms: _383  and  _384
REMARK  161  A    between atoms: _394  and  _396
REMARK  162  A    between atoms: _396  and  _397
REMARK  163  A    between atoms: _400  and  _402
REMARK  164  A    between atoms: _402  and  _403
REMARK  165  A    between atoms: _402  and  _405
REMARK  166  A    between atoms: _405  and  _406
REMARK  167  A    between atoms: _412  and  _414
REMARK  168  A    between atoms: _414  and  _415
REMARK  169  A    between atoms: _414  and  _417
REMARK  170  A    between atoms: _417  and  _418
REMARK  171  A    between atoms: _428  and  _430
REMARK  172  A    between atoms: _430  and  _431
REMARK  173  A    between atoms: _430  and  _433
REMARK  174  A    between atoms: _433  and  _434
REMARK  175  A    between atoms: _437  and  _439
REMARK  176  A    between atoms: _439  and  _440
REMARK  177  A    between atoms: _439  and  _442
REMARK  178  A    between atoms: _442  and  _443
REMARK  179  A    between atoms: _446  and  _448
REMARK  180  A    between atoms: _448  and  _449
REMARK  181  A    between atoms: _448  and  _451
REMARK  182  A    between atoms: _451  and  _452
REMARK  183  A    between atoms: _462  and  _464
REMARK  184  A    between atoms: _464  and  _465
REMARK  185  A    between atoms: _464  and  _467
REMARK  186  A    between atoms: _467  and  _468
REMARK  187  A    between atoms: _468  and  _469
REMARK  188  A    between atoms: _469  and  _470
REMARK  189  A    between atoms: _479  and  _481
REMARK  190  A    between atoms: _481  and  _482
REMARK  191  A    between atoms: _481  and  _484
REMARK  192  A    between atoms: _484  and  _485
REMARK  193  A    between atoms: _488  and  _490
REMARK  194  A    between atoms: _490  and  _491
REMARK  195  A    between atoms: _490  and  _493
REMARK  196  A    between atoms: _493  and  _494
REMARK  197  A    between atoms: _500  and  _502
REMARK  198  A    between atoms: _502  and  _503
REMARK  199  A    between atoms: _505  and  _507
REMARK  200  A    between atoms: _507  and  _508
REMARK  201  A    between atoms: _507  and  _510
REMARK  202  A    between atoms: _510  and  _511
REMARK  203  A    between atoms: _511  and  _512
REMARK  204  A    between atoms: _512  and  _513
REMARK  205  A    between atoms: _522  and  _524
REMARK  206  A    between atoms: _524  and  _525
REMARK  207  A    between atoms: _524  and  _527
REMARK  208  A    between atoms: _527  and  _528
REMARK  209  A    between atoms: _528  and  _529
REMARK  210  A    between atoms: _529  and  _530
REMARK  211  A    between atoms: _530  and  _531
REMARK  212  A    between atoms: _535  and  _537
REMARK  213  A    between atoms: _537  and  _538
REMARK  214  A    between atoms: _540  and  _542
REMARK  215  A    between atoms: _542  and  _543
REMARK  216  A    between atoms: _542  and  _545
REMARK  217  A    between atoms: _548  and  _550
REMARK  218  A    between atoms: _550  and  _551
REMARK  219  A    between atoms: _550  and  _553
REMARK  220  A    between atoms: _553  and  _554
REMARK  221  A    between atoms: _556  and  _558
REMARK  222  A    between atoms: _558  and  _559
REMARK  223  A    between atoms: _558  and  _561
REMARK  224  A    between atoms: _561  and  _562
REMARK  225  A    between atoms: _567  and  _569
REMARK  226  A    between atoms: _569  and  _570
REMARK  227  A    between atoms: _572  and  _574
REMARK  228  A    between atoms: _574  and  _575
REMARK  229  A    between atoms: _574  and  _577
REMARK  230  A    between atoms: _577  and  _578
REMARK  231  A    between atoms: _584  and  _586
REMARK  232  A    between atoms: _586  and  _587
REMARK  233  A    between atoms: _586  and  _589
REMARK  234  A    between atoms: _589  and  _590
REMARK  235  A    between atoms: _596  and  _598
REMARK  236  A    between atoms: _598  and  _599
REMARK  237  A    between atoms: _598  and  _601
REMARK  238  A    between atoms: _601  and  _602
REMARK  239  A    between atoms: _605  and  _607
REMARK  240  A    between atoms: _607  and  _608
REMARK  241  A    between atoms: _607  and  _610
REMARK  242  A    between atoms: _610  and  _611
REMARK  243  A    between atoms: _611  and  _612
REMARK  244  A    between atoms: _612  and  _613
REMARK  245  A    between atoms: _613  and  _614
REMARK  246  A    between atoms: _618  and  _620
REMARK  247  A    between atoms: _620  and  _621
REMARK  248  A    between atoms: _620  and  _623
REMARK  249  A    between atoms: _623  and  _624
REMARK  250  A    between atoms: _624  and  _625
REMARK  251  A    between atoms: _625  and  _626
REMARK                            x       y       z     vdW  Elec       q    Type
REMARK                         _______ _______ _______ _____ _____    ______ ____
ROOT
ATOM      1  C   PHE A   1      12.348  18.675  17.777  0.00  0.00    +0.239 C 
ATOM      2  O   PHE A   1      12.561  17.804  18.625  0.00  0.00    -0.274 OA
ATOM      3  N   PHE A   2      12.255  18.401  16.479  0.00  0.00    -0.298 N 
ATOM      4  H   PHE A   2      12.050  19.168  15.808  0.00  0.00    +0.150 HD
ENDROOT
BRANCH   1   5
ATOM      5  CA  PHE A   1      12.186  20.145  18.181  0.00  0.00    +0.149 C 
BRANCH   5   6
ATOM      6  N   PHE A   1      12.854  20.990  17.180  0.00  0.00    -0.238 NA
ATOM      7  H   PHE A   1      12.291  21.622  16.576  0.00  0.00    +0.142 HD
ENDBRANCH   5   6
BRANCH   5   8
ATOM      8  CB  PHE A   1      10.700  20.514  18.302  0.00  0.00    +0.053 C 
BRANCH   8   9
ATOM      9  CG  PHE A   1       9.980  19.819  19.438  0.00  0.00    -0.020 A 
ATOM     10  CD2 PHE A   1      10.539  19.765  20.712  0.00  0.00    -0.004 A 
ATOM     11  CE2 PHE A   1       9.862  19.147  21.767  0.00  0.00    -0.000 A 
ATOM     12  CZ  PHE A   1       8.608  18.572  21.549  0.00  0.00    -0.000 A 
ATOM     13  CE1 PHE A   1       8.040  18.621  20.280  0.00  0.00    -0.000 A 
ATOM     14  CD1 PHE A   1       8.728  19.240  19.234  0.00  0.00    -0.004 A 
ENDBRANCH   8   9
ENDBRANCH   5   8
ENDBRANCH   1   5
BRANCH   3  15
ATOM     15  CA  PHE A   2      12.436  17.040  15.981  0.00  0.00    +0.141 C 
BRANCH  15  16
ATOM     16  C   PHE A   2      13.879  16.613  16.252  0.00  0.00    +0.227 C 
ATOM     17  O   PHE A   2      14.137  15.516  16.758  0.00  0.00    -0.286 OA
ENDBRANCH  15  16
BRANCH  15  18
ATOM     18  CB  PHE A   2      12.183  16.983  14.467  0.00  0.00    +0.054 C 
BRANCH  18  19
ATOM     19  CG  PHE A   2      12.422  15.623  13.858  0.00  0.00    -0.020 A 
ATOM     20  CD2 PHE A   2      11.383  14.698  13.751  0.00  0.00    -0.004 A 
ATOM     21  CE2 PHE A   2      11.608  13.421  13.209  0.00  0.00    -0.000 A 
ATOM     22  CZ  PHE A   2      12.883  13.068  12.770  0.00  0.00    -0.000 A 
ATOM     23  CE1 PHE A   2      13.933  13.993  12.873  0.00  0.00    -0.000 A 
ATOM     24  CD1 PHE A   2      13.690  15.261  13.415  0.00  0.00    -0.004 A 
ENDBRANCH  18  19
ENDBRANCH  15  18
ENDBRANCH   3  15
TORSDOF 8
REMARK  Name = ../refined-set-2016/2am4/2am4_pocket.pdb
REMARK  251 active torsions:
REMARK  status: ('A' for Active; 'I' for Inactive)
REMARK    1  A    between atoms: _1  and  _3
REMARK    2  A    between atoms: _3  and  _4
REMARK    3  A    between atoms: _3  and  _6
REMARK    4  A    between atoms: _6  and  _7
REMARK    5  A    between atoms: _10  and  _12
REMARK    6  A    between atoms: _12  and  _13
REMARK    7  A    between atoms: _12  and  _15
REMARK    8  A    between atoms: _18  and  _20
REMARK    9  A    between atoms: _20  and  _21
REMARK   10  A    between atoms: _20  and  _23
REMARK   11  A    between atoms: _23  and  _24
REMARK   12  A    between atoms: _27  and  _29
REMARK   13  A    between atoms: _29  and  _30
REMARK   14  A    between atoms: _33  and  _35
REMARK   15  A    between atoms: _35  and  _36
REMARK   16  A    between atoms: _35  and  _38
REMARK   17  A    between atoms: _38  and  _39
REMARK   18  A    between atoms: _39  and  _109
REMARK   19  A    between atoms: _40  and  _42
REMARK   20  A    between atoms: _42  and  _43
REMARK   21  A    between atoms: _42  and  _45
REMARK   22  A    between atoms: _45  and  _46
REMARK   23  A    between atoms: _49  and  _51
REMARK   24  A    between atoms: _51  and  _52
REMARK   25  A    between atoms: _51  and  _54
REMARK   26  A    between atoms: _54  and  _55
REMARK   27  A    between atoms: _55  and  _56
REMARK   28  A    between atoms: _56  and  _57
REMARK   29  A    between atoms: _66  and  _68
REMARK   30  A    between atoms: _68  and  _69
REMARK   31  A    between atoms: _68  and  _71
REMARK   32  A    between atoms: _74  and  _76
REMARK   33  A    between atoms: _76  and  _77
REMARK   34  A    between atoms: _76  and  _79
REMARK   35  A    between atoms: _79  and  _80
REMARK   36  A    between atoms: _82  and  _84
REMARK   37  A    between atoms: _84  and  _85
REMARK   38  A    between atoms: _84  and  _87
REMARK   39  A    between atoms: _87  and  _88
REMARK   40  A    between atoms: _88  and  _89
REMARK   41  A    between atoms: _94  and  _96
REMARK   42  A    between atoms: _96  and  _97
REMARK   43  A    between atoms: _96  and  _99
REMARK   44  A    between atoms: _99  and  _100
REMARK   45  A    between atoms: _103  and  _105
REMARK   46  A    between atoms: _105  and  _106
REMARK   47  A    between atoms: _105  and  _108
REMARK   48  A    between atoms: _108  and  _109
REMARK   49  A    between atoms: _110  and  _112
REMARK   50  A    between atoms: _112  and  _113
REMARK   51  A    between atoms: _115  and  _117
REMARK   52  A    between atoms: _117  and  _118
REMARK   53  A    between atoms: _117  and  _120
REMARK   54  A    between atoms: _120  and  _121
REMARK   55  A    between atoms: _124  and  _126
REMARK   56  A    between atoms: _126  and  _127
REMARK   57  A    between atoms: _126  and  _129
REMARK   58  A    between atoms: _129  and  _130
REMARK   59  A    between atoms: _130  and  _131
REMARK   60  A    between atoms: _136  and  _138
REMARK   61  A    between atoms: _138  and  _139
REMARK   62  A    between atoms: _138  and  _141
REMARK   63  A    between atoms: _141  and  _142
REMARK   64  A    between atoms: _145  and  _147
REMARK   65  A    between atoms: _147  and  _148
REMARK   66  A    between atoms: _147  and  _150
REMARK   67  A    between atoms: _150  and  _151
REMARK   68  A    between atoms: _154  and  _156
REMARK   69  A    between atoms: _156  and  _157
REMARK   70  A    between atoms: _156  and  _159
REMARK   71  A    between atoms: _159  and  _160
REMARK   72  A    between atoms: _166  and  _168
REMARK   73  A    between atoms: _168  and  _169
REMARK   74  A    between atoms: _168  and  _171
REMARK   75  A    between atoms: _171  and  _172
REMARK   76  A    between atoms: _172  and  _173
REMARK   77  A    between atoms: _178  and  _180
REMARK   78  A    between atoms: _180  and  _181
REMARK   79  A    between atoms: _183  and  _185
REMARK   80  A    between atoms: _185  and  _186
REMARK   81  A    between atoms: _185  and  _188
REMARK   82  A    between atoms: _188  and  _189
REMARK   83  A    between atoms: _194  and  _195
REMARK   84  A    between atoms: _197  and  _199
REMARK   85  A    between atoms: _199  and  _200
REMARK   86  A    between atoms: _199  and  _202
REMARK   87  A    between atoms: _202  and  _203
REMARK   88  A    between atoms: _208  and  _209
REMARK   89  A    between atoms: _211  and  _213
REMARK   90  A    between atoms: _213  and  _214
REMARK   91  A    between atoms: _213  and  _216
REMARK   92  A    between atoms: _216  and  _217
REMARK   93  A    between atoms: _217  and  _218
REMARK   94  A    between atoms: _218  and  _219
REMARK   95  A    between atoms: _219  and  _220
REMARK   96  A    between atoms: _224  and  _226
REMARK   97  A    between atoms: _226  and  _227
REMARK   98  A    between atoms: _226  and  _229
REMARK   99  A    between atoms: _229  and  _230
REMARK  100  A    between atoms: _233  and  _235
REMARK  101  A    between atoms: _235  and  _236
REMARK  102  A    between atoms: _239  and  _241
REMARK  103  A    between atoms: _241  and  _242
REMARK  104  A    between atoms: _241  and  _244
REMARK  105  A    between atoms: _244  and  _245
REMARK  106  A    between atoms: _245  and  _246
REMARK  107  A    between atoms: _246  and  _247
REMARK  108  A    between atoms: _256  and  _258
REMARK  109  A    between atoms: _258  and  _259
REMARK  110  A    between atoms: _258  and  _261
REMARK  111  A    between atoms: _261  and  _262
REMARK  112  A    between atoms: _267  and  _269
REMARK  113  A    between atoms: _269  and  _270
REMARK  114  A    between atoms: _269  and  _272
REMARK  115  A    between atoms: _272  and  _273
REMARK  116  A    between atoms: _278  and  _279
REMARK  117  A    between atoms: _281  and  _283
REMARK  118  A    between atoms: _283  and  _284
REMARK  119  A    between atoms: _287  and  _289
REMARK  120  A    between atoms: _289  and  _290
REMARK  121  A    between atoms: _289  and  _292
REMARK  122  A    between atoms: _295  and  _297
REMARK  123  A    between atoms: _297  and  _298
REMARK  124  A    between atoms: _297  and  _300
REMARK  125  A    between atoms: _303  and  _305
REMARK  126  A    between atoms: _305  and  _306
REMARK  127  A    between atoms: _305  and  _308
REMARK  128  A    between atoms: _308  and  _309
REMARK  129  A    between atoms: _309  and  _310
REMARK  130  A    between atoms: _313  and  _315
REMARK  131  A    between atoms: _315  and  _316
REMARK  132  A    between atoms: _315  and  _318
REMARK  133  A    between atoms: _318  and  _319
REMARK  134  A    between atoms: _322  and  _324
REMARK  135  A    between atoms: _324  and  _325
REMARK  136  A    between atoms: _324  and  _327
REMARK  137  A    between atoms: _327  and  _328
REMARK  138  A    between atoms: _328  and  _330
REMARK  139  A    between atoms: _330  and  MN_635
REMARK  140  A    between atoms: _331  and  _333
REMARK  141  A    between atoms: _333  and  _334
REMARK  142  A    between atoms: _333  and  _336
REMARK  143  A    between atoms: _336  and  _337
REMARK  144  A    between atoms: _340  and  _342
REMARK  145  A    between atoms: _342  and  _343
REMARK  146  A    between atoms: _342  and  _345
REMARK  147  A    between atoms: _345  and  _346
REMARK  148  A    between atoms: _353  and  _354
REMARK  149  A    between atoms: _359  and  _361
REMARK  150  A    between atoms: _361  and  _362
REMARK  151  A    between atoms: _364  and  _366
REMARK  152  A    between atoms: _366  and  _367
REMARK  153  A    between atoms: _366  and  _369
REMARK  154  A    between atoms: _369  and  _370
REMARK  155  A    between atoms: _373  and  _375
REMARK  156  A    between atoms: _375  and  _376
REMARK  157  A    between atoms: _378  and  _380
REMARK  158  A    between atoms: _380  and  _381
REMARK  159  A    between atoms: _380  and  _383
REMARK  160  A    between atoms: _383  and  _384
REMARK  161  A    between atoms: _394  and  _396
REMARK  162  A    between atoms: _396  and  _397
REMARK  163  A    between atoms: _400  and  _402
REMARK  164  A    between atoms: _402  and  _403
REMARK  165  A    between atoms: _402  and  _405
REMARK  166  A    between atoms: _405  and  _406
REMARK  167  A    between atoms: _412  and  _414
REMARK  168  A    between atoms: _414  and  _415
REMARK  169  A    between atoms: _414  and  _417
REMARK  170  A    between atoms: _417  and  _418
REMARK  171  A    between atoms: _428  and  _430
REMARK  172  A    between atoms: _430  and  _431
REMARK  173  A    between atoms: _430  and  _433
REMARK  174  A    between atoms: _433  and  _434
REMARK  175  A    between atoms: _437  and  _439
REMARK  176  A    between atoms: _439  and  _440
REMARK  177  A    between atoms: _439  and  _442
REMARK  178  A    between atoms: _442  and  _443
REMARK  179  A    between atoms: _446  and  _448
REMARK  180  A    between atoms: _448  and  _449
REMARK  181  A    between atoms: _448  and  _451
REMARK  182  A    between atoms: _451  and  _452
REMARK  183  A    between atoms: _462  and  _464
REMARK  184  A    between atoms: _464  and  _465
REMARK  185  A    between atoms: _464  and  _467
REMARK  186  A    between atoms: _467  and  _468
REMARK  187  A    between atoms: _468  and  _469
REMARK  188  A    between atoms: _469  and  _470
REMARK  189  A    between atoms: _479  and  _481
REMARK  190  A    between atoms: _481  and  _482
REMARK  191  A    between atoms: _481  and  _484
REMARK  192  A    between atoms: _484  and  _485
REMARK  193  A    between atoms: _488  and  _490
REMARK  194  A    between atoms: _490  and  _491
REMARK  195  A    between atoms: _490  and  _493
REMARK  196  A    between atoms: _493  and  _494
REMARK  197  A    between atoms: _500  and  _502
REMARK  198  A    between atoms: _502  and  _503
REMARK  199  A    between atoms: _505  and  _507
REMARK  200  A    between atoms: _507  and  _508
REMARK  201  A    between atoms: _507  and  _510
REMARK  202  A    between atoms: _510  and  _511
REMARK  203  A    between atoms: _511  and  _512
REMARK  204  A    between atoms: _512  and  _513
REMARK  205  A    between atoms: _522  and  _524
REMARK  206  A    between atoms: _524  and  _525
REMARK  207  A    between atoms: _524  and  _527
REMARK  208  A    between atoms: _527  and  _528
REMARK  209  A    between atoms: _528  and  _529
REMARK  210  A    between atoms: _529  and  _530
REMARK  211  A    between atoms: _530  and  _531
REMARK  212  A    between atoms: _535  and  _537
REMARK  213  A    between atoms: _537  and  _538
REMARK  214  A    between atoms: _540  and  _542
REMARK  215  A    between atoms: _542  and  _543
REMARK  216  A    between atoms: _542  and  _545
REMARK  217  A    between atoms: _548  and  _550
REMARK  218  A    between atoms: _550  and  _551
REMARK  219  A    between atoms: _550  and  _553
REMARK  220  A    between atoms: _553  and  _554
REMARK  221  A    between atoms: _556  and  _558
REMARK  222  A    between atoms: _558  and  _559
REMARK  223  A    between atoms: _558  and  _561
REMARK  224  A    between atoms: _561  and  _562
REMARK  225  A    between atoms: _567  and  _569
REMARK  226  A    between atoms: _569  and  _570
REMARK  227  A    between atoms: _572  and  _574
REMARK  228  A    between atoms: _574  and  _575
REMARK  229  A    between atoms: _574  and  _577
REMARK  230  A    between atoms: _577  and  _578
REMARK  231  A    between atoms: _584  and  _586
REMARK  232  A    between atoms: _586  and  _587
REMARK  233  A    between atoms: _586  and  _589
REMARK  234  A    between atoms: _589  and  _590
REMARK  235  A    between atoms: _596  and  _598
REMARK  236  A    between atoms: _598  and  _599
REMARK  237  A    between atoms: _598  and  _601
REMARK  238  A    between atoms: _601  and  _602
REMARK  239  A    between atoms: _605  and  _607
REMARK  240  A    between atoms: _607  and  _608
REMARK  241  A    between atoms: _607  and  _610
REMARK  242  A    between atoms: _610  and  _611
REMARK  243  A    between atoms: _611  and  _612
REMARK  244  A    between atoms: _612  and  _613
REMARK  245  A    between atoms: _613  and  _614
REMARK  246  A    between atoms: _618  and  _620
REMARK  247  A    between atoms: _620  and  _621
REMARK  248  A    between atoms: _620  and  _623
REMARK  249  A    between atoms: _623  and  _624
REMARK  250  A    between atoms: _624  and  _625
REMARK  251  A    between atoms: _625  and  _626
REMARK                            x       y       z     vdW  Elec       q    Type
REMARK                         _______ _______ _______ _____ _____    ______ ____
ROOT
ATOM      1  CA  LEU A   1      11.132  13.766  18.761  0.00  0.00    +0.133 C 
ENDROOT
BRANCH   1   2
ATOM      2  N   LEU A   1      11.981  14.749  19.434  0.00  0.00    -0.239 NA
ATOM      3  H   LEU A   1      11.903  15.757  19.188  0.00  0.00    +0.142 HD
ENDBRANCH   1   2
BRANCH   1   4
ATOM      4  C   LEU A   1      11.837  12.571  18.115  0.00  0.00    +0.224 C 
ATOM      5  O   LEU A   1      11.357  11.441  18.225  0.00  0.00    -0.287 OA
ENDBRANCH   1   4
BRANCH   1   6
ATOM      6  CB  LEU A   1      10.242  14.461  17.717  0.00  0.00    +0.025 C 
BRANCH   6   7
ATOM      7  CG  LEU A   1       9.326  15.586  18.222  0.00  0.00    +0.002 C 
ATOM      8  CD2 LEU A   1       8.352  15.059  19.263  0.00  0.00    +0.000 C 
ATOM      9  CD1 LEU A   1       8.564  16.180  17.062  0.00  0.00    +0.000 C 
ENDBRANCH   6   7
ENDBRANCH   1   6
TORSDOF 4
REMARK  Name = ../refined-set-2016/2am4/2am4_pocket.pdb
REMARK  251 active torsions:
REMARK  status: ('A' for Active; 'I' for Inactive)
REMARK    1  A    between atoms: _1  and  _3
REMARK    2  A    between atoms: _3  and  _4
REMARK    3  A    between atoms: _3  and  _6
REMARK    4  A    between atoms: _6  and  _7
REMARK    5  A    between atoms: _10  and  _12
REMARK    6  A    between atoms: _12  and  _13
REMARK    7  A    between atoms: _12  and  _15
REMARK    8  A    between atoms: _18  and  _20
REMARK    9  A    between atoms: _20  and  _21
REMARK   10  A    between atoms: _20  and  _23
REMARK   11  A    between atoms: _23  and  _24
REMARK   12  A    between atoms: _27  and  _29
REMARK   13  A    between atoms: _29  and  _30
REMARK   14  A    between atoms: _33  and  _35
REMARK   15  A    between atoms: _35  and  _36
REMARK   16  A    between atoms: _35  and  _38
REMARK   17  A    between atoms: _38  and  _39
REMARK   18  A    between atoms: _39  and  _109
REMARK   19  A    between atoms: _40  and  _42
REMARK   20  A    between atoms: _42  and  _43
REMARK   21  A    between atoms: _42  and  _45
REMARK   22  A    between atoms: _45  and  _46
REMARK   23  A    between atoms: _49  and  _51
REMARK   24  A    between atoms: _51  and  _52
REMARK   25  A    between atoms: _51  and  _54
REMARK   26  A    between atoms: _54  and  _55
REMARK   27  A    between atoms: _55  and  _56
REMARK   28  A    between atoms: _56  and  _57
REMARK   29  A    between atoms: _66  and  _68
REMARK   30  A    between atoms: _68  and  _69
REMARK   31  A    between atoms: _68  and  _71
REMARK   32  A    between atoms: _74  and  _76
REMARK   33  A    between atoms: _76  and  _77
REMARK   34  A    between atoms: _76  and  _79
REMARK   35  A    between atoms: _79  and  _80
REMARK   36  A    between atoms: _82  and  _84
REMARK   37  A    between atoms: _84  and  _85
REMARK   38  A    between atoms: _84  and  _87
REMARK   39  A    between atoms: _87  and  _88
REMARK   40  A    between atoms: _88  and  _89
REMARK   41  A    between atoms: _94  and  _96
REMARK   42  A    between atoms: _96  and  _97
REMARK   43  A    between atoms: _96  and  _99
REMARK   44  A    between atoms: _99  and  _100
REMARK   45  A    between atoms: _103  and  _105
REMARK   46  A    between atoms: _105  and  _106
REMARK   47  A    between atoms: _105  and  _108
REMARK   48  A    between atoms: _108  and  _109
REMARK   49  A    between atoms: _110  and  _112
REMARK   50  A    between atoms: _112  and  _113
REMARK   51  A    between atoms: _115  and  _117
REMARK   52  A    between atoms: _117  and  _118
REMARK   53  A    between atoms: _117  and  _120
REMARK   54  A    between atoms: _120  and  _121
REMARK   55  A    between atoms: _124  and  _126
REMARK   56  A    between atoms: _126  and  _127
REMARK   57  A    between atoms: _126  and  _129
REMARK   58  A    between atoms: _129  and  _130
REMARK   59  A    between atoms: _130  and  _131
REMARK   60  A    between atoms: _136  and  _138
REMARK   61  A    between atoms: _138  and  _139
REMARK   62  A    between atoms: _138  and  _141
REMARK   63  A    between atoms: _141  and  _142
REMARK   64  A    between atoms: _145  and  _147
REMARK   65  A    between atoms: _147  and  _148
REMARK   66  A    between atoms: _147  and  _150
REMARK   67  A    between atoms: _150  and  _151
REMARK   68  A    between atoms: _154  and  _156
REMARK   69  A    between atoms: _156  and  _157
REMARK   70  A    between atoms: _156  and  _159
REMARK   71  A    between atoms: _159  and  _160
REMARK   72  A    between atoms: _166  and  _168
REMARK   73  A    between atoms: _168  and  _169
REMARK   74  A    between atoms: _168  and  _171
REMARK   75  A    between atoms: _171  and  _172
REMARK   76  A    between atoms: _172  and  _173
REMARK   77  A    between atoms: _178  and  _180
REMARK   78  A    between atoms: _180  and  _181
REMARK   79  A    between atoms: _183  and  _185
REMARK   80  A    between atoms: _185  and  _186
REMARK   81  A    between atoms: _185  and  _188
REMARK   82  A    between atoms: _188  and  _189
REMARK   83  A    between atoms: _194  and  _195
REMARK   84  A    between atoms: _197  and  _199
REMARK   85  A    between atoms: _199  and  _200
REMARK   86  A    between atoms: _199  and  _202
REMARK   87  A    between atoms: _202  and  _203
REMARK   88  A    between atoms: _208  and  _209
REMARK   89  A    between atoms: _211  and  _213
REMARK   90  A    between atoms: _213  and  _214
REMARK   91  A    between atoms: _213  and  _216
REMARK   92  A    between atoms: _216  and  _217
REMARK   93  A    between atoms: _217  and  _218
REMARK   94  A    between atoms: _218  and  _219
REMARK   95  A    between atoms: _219  and  _220
REMARK   96  A    between atoms: _224  and  _226
REMARK   97  A    between atoms: _226  and  _227
REMARK   98  A    between atoms: _226  and  _229
REMARK   99  A    between atoms: _229  and  _230
REMARK  100  A    between atoms: _233  and  _235
REMARK  101  A    between atoms: _235  and  _236
REMARK  102  A    between atoms: _239  and  _241
REMARK  103  A    between atoms: _241  and  _242
REMARK  104  A    between atoms: _241  and  _244
REMARK  105  A    between atoms: _244  and  _245
REMARK  106  A    between atoms: _245  and  _246
REMARK  107  A    between atoms: _246  and  _247
REMARK  108  A    between atoms: _256  and  _258
REMARK  109  A    between atoms: _258  and  _259
REMARK  110  A    between atoms: _258  and  _261
REMARK  111  A    between atoms: _261  and  _262
REMARK  112  A    between atoms: _267  and  _269
REMARK  113  A    between atoms: _269  and  _270
REMARK  114  A    between atoms: _269  and  _272
REMARK  115  A    between atoms: _272  and  _273
REMARK  116  A    between atoms: _278  and  _279
REMARK  117  A    between atoms: _281  and  _283
REMARK  118  A    between atoms: _283  and  _284
REMARK  119  A    between atoms: _287  and  _289
REMARK  120  A    between atoms: _289  and  _290
REMARK  121  A    between atoms: _289  and  _292
REMARK  122  A    between atoms: _295  and  _297
REMARK  123  A    between atoms: _297  and  _298
REMARK  124  A    between atoms: _297  and  _300
REMARK  125  A    between atoms: _303  and  _305
REMARK  126  A    between atoms: _305  and  _306
REMARK  127  A    between atoms: _305  and  _308
REMARK  128  A    between atoms: _308  and  _309
REMARK  129  A    between atoms: _309  and  _310
REMARK  130  A    between atoms: _313  and  _315
REMARK  131  A    between atoms: _315  and  _316
REMARK  132  A    between atoms: _315  and  _318
REMARK  133  A    between atoms: _318  and  _319
REMARK  134  A    between atoms: _322  and  _324
REMARK  135  A    between atoms: _324  and  _325
REMARK  136  A    between atoms: _324  and  _327
REMARK  137  A    between atoms: _327  and  _328
REMARK  138  A    between atoms: _328  and  _330
REMARK  139  A    between atoms: _330  and  MN_635
REMARK  140  A    between atoms: _331  and  _333
REMARK  141  A    between atoms: _333  and  _334
REMARK  142  A    between atoms: _333  and  _336
REMARK  143  A    between atoms: _336  and  _337
REMARK  144  A    between atoms: _340  and  _342
REMARK  145  A    between atoms: _342  and  _343
REMARK  146  A    between atoms: _342  and  _345
REMARK  147  A    between atoms: _345  and  _346
REMARK  148  A    between atoms: _353  and  _354
REMARK  149  A    between atoms: _359  and  _361
REMARK  150  A    between atoms: _361  and  _362
REMARK  151  A    between atoms: _364  and  _366
REMARK  152  A    between atoms: _366  and  _367
REMARK  153  A    between atoms: _366  and  _369
REMARK  154  A    between atoms: _369  and  _370
REMARK  155  A    between atoms: _373  and  _375
REMARK  156  A    between atoms: _375  and  _376
REMARK  157  A    between atoms: _378  and  _380
REMARK  158  A    between atoms: _380  and  _381
REMARK  159  A    between atoms: _380  and  _383
REMARK  160  A    between atoms: _383  and  _384
REMARK  161  A    between atoms: _394  and  _396
REMARK  162  A    between atoms: _396  and  _397
REMARK  163  A    between atoms: _400  and  _402
REMARK  164  A    between atoms: _402  and  _403
REMARK  165  A    between atoms: _402  and  _405
REMARK  166  A    between atoms: _405  and  _406
REMARK  167  A    between atoms: _412  and  _414
REMARK  168  A    between atoms: _414  and  _415
REMARK  169  A    between atoms: _414  and  _417
REMARK  170  A    between atoms: _417  and  _418
REMARK  171  A    between atoms: _428  and  _430
REMARK  172  A    between atoms: _430  and  _431
REMARK  173  A    between atoms: _430  and  _433
REMARK  174  A    between atoms: _433  and  _434
REMARK  175  A    between atoms: _437  and  _439
REMARK  176  A    between atoms: _439  and  _440
REMARK  177  A    between atoms: _439  and  _442
REMARK  178  A    between atoms: _442  and  _443
REMARK  179  A    between atoms: _446  and  _448
REMARK  180  A    between atoms: _448  and  _449
REMARK  181  A    between atoms: _448  and  _451
REMARK  182  A    between atoms: _451  and  _452
REMARK  183  A    between atoms: _462  and  _464
REMARK  184  A    between atoms: _464  and  _465
REMARK  185  A    between atoms: _464  and  _467
REMARK  186  A    between atoms: _467  and  _468
REMARK  187  A    between atoms: _468  and  _469
REMARK  188  A    between atoms: _469  and  _470
REMARK  189  A    between atoms: _479  and  _481
REMARK  190  A    between atoms: _481  and  _482
REMARK  191  A    between atoms: _481  and  _484
REMARK  192  A    between atoms: _484  and  _485
REMARK  193  A    between atoms: _488  and  _490
REMARK  194  A    between atoms: _490  and  _491
REMARK  195  A    between atoms: _490  and  _493
REMARK  196  A    between atoms: _493  and  _494
REMARK  197  A    between atoms: _500  and  _502
REMARK  198  A    between atoms: _502  and  _503
REMARK  199  A    between atoms: _505  and  _507
REMARK  200  A    between atoms: _507  and  _508
REMARK  201  A    between atoms: _507  and  _510
REMARK  202  A    between atoms: _510  and  _511
REMARK  203  A    between atoms: _511  and  _512
REMARK  204  A    between atoms: _512  and  _513
REMARK  205  A    between atoms: _522  and  _524
REMARK  206  A    between atoms: _524  and  _525
REMARK  207  A    between atoms: _524  and  _527
REMARK  208  A    between atoms: _527  and  _528
REMARK  209  A    between atoms: _528  and  _529
REMARK  210  A    between atoms: _529  and  _530
REMARK  211  A    between atoms: _530  and  _531
REMARK  212  A    between atoms: _535  and  _537
REMARK  213  A    between atoms: _537  and  _538
REMARK  214  A    between atoms: _540  and  _542
REMARK  215  A    between atoms: _542  and  _543
REMARK  216  A    between atoms: _542  and  _545
REMARK  217  A    between atoms: _548  and  _550
REMARK  218  A    between atoms: _550  and  _551
REMARK  219  A    between atoms: _550  and  _553
REMARK  220  A    between atoms: _553  and  _554
REMARK  221  A    between atoms: _556  and  _558
REMARK  222  A    between atoms: _558  and  _559
REMARK  223  A    between atoms: _558  and  _561
REMARK  224  A    between atoms: _561  and  _562
REMARK  225  A    between atoms: _567  and  _569
REMARK  226  A    between atoms: _569  and  _570
REMARK  227  A    between atoms: _572  and  _574
REMARK  228  A    between atoms: _574  and  _575
REMARK  229  A    between atoms: _574  and  _577
REMARK  230  A    between atoms: _577  and  _578
REMARK  231  A    between atoms: _584  and  _586
REMARK  232  A    between atoms: _586  and  _587
REMARK  233  A    between atoms: _586  and  _589
REMARK  234  A    between atoms: _589  and  _590
REMARK  235  A    between atoms: _596  and  _598
REMARK  236  A    between atoms: _598  and  _599
REMARK  237  A    between atoms: _598  and  _601
REMARK  238  A    between atoms: _601  and  _602
REMARK  239  A    between atoms: _605  and  _607
REMARK  240  A    between atoms: _607  and  _608
REMARK  241  A    between atoms: _607  and  _610
REMARK  242  A    between atoms: _610  and  _611
REMARK  243  A    between atoms: _611  and  _612
REMARK  244  A    between atoms: _612  and  _613
REMARK  245  A    between atoms: _613  and  _614
REMARK  246  A    between atoms: _618  and  _620
REMARK  247  A    between atoms: _620  and  _621
REMARK  248  A    between atoms: _620  and  _623
REMARK  249  A    between atoms: _623  and  _624
REMARK  250  A    between atoms: _624  and  _625
REMARK  251  A    between atoms: _625  and  _626
REMARK                            x       y       z     vdW  Elec       q    Type
REMARK                         _______ _______ _______ _____ _____    ______ ____
ROOT
ATOM      1  CG  LYS A   1       2.264  22.515  26.117  0.00  0.00    -0.000 C 
ENDROOT
BRANCH   1   2
ATOM      2  CB  LYS A   1       1.160  22.772  27.160  0.00  0.00    +0.025 C 
BRANCH   2   3
ATOM      3  CA  LYS A   1       1.579  23.713  28.292  0.00  0.00    +0.133 C 
BRANCH   3   4
ATOM      4  N   LYS A   1       2.650  23.123  29.097  0.00  0.00    -0.239 NA
ATOM      5  H   LYS A   1       2.497  22.200  29.551  0.00  0.00    +0.142 HD
ENDBRANCH   3   4
BRANCH   3   6
ATOM      6  C   LYS A   1       0.428  23.917  29.270  0.00  0.00    +0.224 C 
ATOM      7  O   LYS A   1      -0.072  22.955  29.867  0.00  0.00    -0.287 OA
ENDBRANCH   3   6
ENDBRANCH   2   3
ENDBRANCH   1   2
BRANCH   1   8
ATOM      8  CD  LYS A   1       2.618  23.762  25.301  0.00  0.00    -0.024 C 
BRANCH   8   9
ATOM      9  CE  LYS A   1       3.637  23.420  24.219  0.00  0.00    -0.086 C 
BRANCH   9  10
ATOM     10  NZ  LYS A   1       3.879  24.537  23.259  0.00  0.00    +0.380 N 
ATOM     11  HZ1 LYS A   1       4.237  25.365  23.776  0.00  0.00    -0.089 HD
ATOM     12  HZ2 LYS A   1       2.988  24.783  22.783  0.00  0.00    -0.089 HD
ATOM     13  HZ3 LYS A   1       4.580  24.239  22.551  0.00  0.00    -0.089 HD
ENDBRANCH   9  10
ENDBRANCH   8   9
ENDBRANCH   1   8
TORSDOF 7
REMARK  Name = ../refined-set-2016/2am4/2am4_pocket.pdb
REMARK  251 active torsions:
REMARK  status: ('A' for Active; 'I' for Inactive)
REMARK    1  A    between atoms: _1  and  _3
REMARK    2  A    between atoms: _3  and  _4
REMARK    3  A    between atoms: _3  and  _6
REMARK    4  A    between atoms: _6  and  _7
REMARK    5  A    between atoms: _10  and  _12
REMARK    6  A    between atoms: _12  and  _13
REMARK    7  A    between atoms: _12  and  _15
REMARK    8  A    between atoms: _18  and  _20
REMARK    9  A    between atoms: _20  and  _21
REMARK   10  A    between atoms: _20  and  _23
REMARK   11  A    between atoms: _23  and  _24
REMARK   12  A    between atoms: _27  and  _29
REMARK   13  A    between atoms: _29  and  _30
REMARK   14  A    between atoms: _33  and  _35
REMARK   15  A    between atoms: _35  and  _36
REMARK   16  A    between atoms: _35  and  _38
REMARK   17  A    between atoms: _38  and  _39
REMARK   18  A    between atoms: _39  and  _109
REMARK   19  A    between atoms: _40  and  _42
REMARK   20  A    between atoms: _42  and  _43
REMARK   21  A    between atoms: _42  and  _45
REMARK   22  A    between atoms: _45  and  _46
REMARK   23  A    between atoms: _49  and  _51
REMARK   24  A    between atoms: _51  and  _52
REMARK   25  A    between atoms: _51  and  _54
REMARK   26  A    between atoms: _54  and  _55
REMARK   27  A    between atoms: _55  and  _56
REMARK   28  A    between atoms: _56  and  _57
REMARK   29  A    between atoms: _66  and  _68
REMARK   30  A    between atoms: _68  and  _69
REMARK   31  A    between atoms: _68  and  _71
REMARK   32  A    between atoms: _74  and  _76
REMARK   33  A    between atoms: _76  and  _77
REMARK   34  A    between atoms: _76  and  _79
REMARK   35  A    between atoms: _79  and  _80
REMARK   36  A    between atoms: _82  and  _84
REMARK   37  A    between atoms: _84  and  _85
REMARK   38  A    between atoms: _84  and  _87
REMARK   39  A    between atoms: _87  and  _88
REMARK   40  A    between atoms: _88  and  _89
REMARK   41  A    between atoms: _94  and  _96
REMARK   42  A    between atoms: _96  and  _97
REMARK   43  A    between atoms: _96  and  _99
REMARK   44  A    between atoms: _99  and  _100
REMARK   45  A    between atoms: _103  and  _105
REMARK   46  A    between atoms: _105  and  _106
REMARK   47  A    between atoms: _105  and  _108
REMARK   48  A    between atoms: _108  and  _109
REMARK   49  A    between atoms: _110  and  _112
REMARK   50  A    between atoms: _112  and  _113
REMARK   51  A    between atoms: _115  and  _117
REMARK   52  A    between atoms: _117  and  _118
REMARK   53  A    between atoms: _117  and  _120
REMARK   54  A    between atoms: _120  and  _121
REMARK   55  A    between atoms: _124  and  _126
REMARK   56  A    between atoms: _126  and  _127
REMARK   57  A    between atoms: _126  and  _129
REMARK   58  A    between atoms: _129  and  _130
REMARK   59  A    between atoms: _130  and  _131
REMARK   60  A    between atoms: _136  and  _138
REMARK   61  A    between atoms: _138  and  _139
REMARK   62  A    between atoms: _138  and  _141
REMARK   63  A    between atoms: _141  and  _142
REMARK   64  A    between atoms: _145  and  _147
REMARK   65  A    between atoms: _147  and  _148
REMARK   66  A    between atoms: _147  and  _150
REMARK   67  A    between atoms: _150  and  _151
REMARK   68  A    between atoms: _154  and  _156
REMARK   69  A    between atoms: _156  and  _157
REMARK   70  A    between atoms: _156  and  _159
REMARK   71  A    between atoms: _159  and  _160
REMARK   72  A    between atoms: _166  and  _168
REMARK   73  A    between atoms: _168  and  _169
REMARK   74  A    between atoms: _168  and  _171
REMARK   75  A    between atoms: _171  and  _172
REMARK   76  A    between atoms: _172  and  _173
REMARK   77  A    between atoms: _178  and  _180
REMARK   78  A    between atoms: _180  and  _181
REMARK   79  A    between atoms: _183  and  _185
REMARK   80  A    between atoms: _185  and  _186
REMARK   81  A    between atoms: _185  and  _188
REMARK   82  A    between atoms: _188  and  _189
REMARK   83  A    between atoms: _194  and  _195
REMARK   84  A    between atoms: _197  and  _199
REMARK   85  A    between atoms: _199  and  _200
REMARK   86  A    between atoms: _199  and  _202
REMARK   87  A    between atoms: _202  and  _203
REMARK   88  A    between atoms: _208  and  _209
REMARK   89  A    between atoms: _211  and  _213
REMARK   90  A    between atoms: _213  and  _214
REMARK   91  A    between atoms: _213  and  _216
REMARK   92  A    between atoms: _216  and  _217
REMARK   93  A    between atoms: _217  and  _218
REMARK   94  A    between atoms: _218  and  _219
REMARK   95  A    between atoms: _219  and  _220
REMARK   96  A    between atoms: _224  and  _226
REMARK   97  A    between atoms: _226  and  _227
REMARK   98  A    between atoms: _226  and  _229
REMARK   99  A    between atoms: _229  and  _230
REMARK  100  A    between atoms: _233  and  _235
REMARK  101  A    between atoms: _235  and  _236
REMARK  102  A    between atoms: _239  and  _241
REMARK  103  A    between atoms: _241  and  _242
REMARK  104  A    between atoms: _241  and  _244
REMARK  105  A    between atoms: _244  and  _245
REMARK  106  A    between atoms: _245  and  _246
REMARK  107  A    between atoms: _246  and  _247
REMARK  108  A    between atoms: _256  and  _258
REMARK  109  A    between atoms: _258  and  _259
REMARK  110  A    between atoms: _258  and  _261
REMARK  111  A    between atoms: _261  and  _262
REMARK  112  A    between atoms: _267  and  _269
REMARK  113  A    between atoms: _269  and  _270
REMARK  114  A    between atoms: _269  and  _272
REMARK  115  A    between atoms: _272  and  _273
REMARK  116  A    between atoms: _278  and  _279
REMARK  117  A    between atoms: _281  and  _283
REMARK  118  A    between atoms: _283  and  _284
REMARK  119  A    between atoms: _287  and  _289
REMARK  120  A    between atoms: _289  and  _290
REMARK  121  A    between atoms: _289  and  _292
REMARK  122  A    between atoms: _295  and  _297
REMARK  123  A    between atoms: _297  and  _298
REMARK  124  A    between atoms: _297  and  _300
REMARK  125  A    between atoms: _303  and  _305
REMARK  126  A    between atoms: _305  and  _306
REMARK  127  A    between atoms: _305  and  _308
REMARK  128  A    between atoms: _308  and  _309
REMARK  129  A    between atoms: _309  and  _310
REMARK  130  A    between atoms: _313  and  _315
REMARK  131  A    between atoms: _315  and  _316
REMARK  132  A    between atoms: _315  and  _318
REMARK  133  A    between atoms: _318  and  _319
REMARK  134  A    between atoms: _322  and  _324
REMARK  135  A    between atoms: _324  and  _325
REMARK  136  A    between atoms: _324  and  _327
REMARK  137  A    between atoms: _327  and  _328
REMARK  138  A    between atoms: _328  and  _330
REMARK  139  A    between atoms: _330  and  MN_635
REMARK  140  A    between atoms: _331  and  _333
REMARK  141  A    between atoms: _333  and  _334
REMARK  142  A    between atoms: _333  and  _336
REMARK  143  A    between atoms: _336  and  _337
REMARK  144  A    between atoms: _340  and  _342
REMARK  145  A    between atoms: _342  and  _343
REMARK  146  A    between atoms: _342  and  _345
REMARK  147  A    between atoms: _345  and  _346
REMARK  148  A    between atoms: _353  and  _354
REMARK  149  A    between atoms: _359  and  _361
REMARK  150  A    between atoms: _361  and  _362
REMARK  151  A    between atoms: _364  and  _366
REMARK  152  A    between atoms: _366  and  _367
REMARK  153  A    between atoms: _366  and  _369
REMARK  154  A    between atoms: _369  and  _370
REMARK  155  A    between atoms: _373  and  _375
REMARK  156  A    between atoms: _375  and  _376
REMARK  157  A    between atoms: _378  and  _380
REMARK  158  A    between atoms: _380  and  _381
REMARK  159  A    between atoms: _380  and  _383
REMARK  160  A    between atoms: _383  and  _384
REMARK  161  A    between atoms: _394  and  _396
REMARK  162  A    between atoms: _396  and  _397
REMARK  163  A    between atoms: _400  and  _402
REMARK  164  A    between atoms: _402  and  _403
REMARK  165  A    between atoms: _402  and  _405
REMARK  166  A    between atoms: _405  and  _406
REMARK  167  A    between atoms: _412  and  _414
REMARK  168  A    between atoms: _414  and  _415
REMARK  169  A    between atoms: _414  and  _417
REMARK  170  A    between atoms: _417  and  _418
REMARK  171  A    between atoms: _428  and  _430
REMARK  172  A    between atoms: _430  and  _431
REMARK  173  A    between atoms: _430  and  _433
REMARK  174  A    between atoms: _433  and  _434
REMARK  175  A    between atoms: _437  and  _439
REMARK  176  A    between atoms: _439  and  _440
REMARK  177  A    between atoms: _439  and  _442
REMARK  178  A    between atoms: _442  and  _443
REMARK  179  A    between atoms: _446  and  _448
REMARK  180  A    between atoms: _448  and  _449
REMARK  181  A    between atoms: _448  and  _451
REMARK  182  A    between atoms: _451  and  _452
REMARK  183  A    between atoms: _462  and  _464
REMARK  184  A    between atoms: _464  and  _465
REMARK  185  A    between atoms: _464  and  _467
REMARK  186  A    between atoms: _467  and  _468
REMARK  187  A    between atoms: _468  and  _469
REMARK  188  A    between atoms: _469  and  _470
REMARK  189  A    between atoms: _479  and  _481
REMARK  190  A    between atoms: _481  and  _482
REMARK  191  A    between atoms: _481  and  _484
REMARK  192  A    between atoms: _484  and  _485
REMARK  193  A    between atoms: _488  and  _490
REMARK  194  A    between atoms: _490  and  _491
REMARK  195  A    between atoms: _490  and  _493
REMARK  196  A    between atoms: _493  and  _494
REMARK  197  A    between atoms: _500  and  _502
REMARK  198  A    between atoms: _502  and  _503
REMARK  199  A    between atoms: _505  and  _507
REMARK  200  A    between atoms: _507  and  _508
REMARK  201  A    between atoms: _507  and  _510
REMARK  202  A    between atoms: _510  and  _511
REMARK  203  A    between atoms: _511  and  _512
REMARK  204  A    between atoms: _512  and  _513
REMARK  205  A    between atoms: _522  and  _524
REMARK  206  A    between atoms: _524  and  _525
REMARK  207  A    between atoms: _524  and  _527
REMARK  208  A    between atoms: _527  and  _528
REMARK  209  A    between atoms: _528  and  _529
REMARK  210  A    between atoms: _529  and  _530
REMARK  211  A    between atoms: _530  and  _531
REMARK  212  A    between atoms: _535  and  _537
REMARK  213  A    between atoms: _537  and  _538
REMARK  214  A    between atoms: _540  and  _542
REMARK  215  A    between atoms: _542  and  _543
REMARK  216  A    between atoms: _542  and  _545
REMARK  217  A    between atoms: _548  and  _550
REMARK  218  A    between atoms: _550  and  _551
REMARK  219  A    between atoms: _550  and  _553
REMARK  220  A    between atoms: _553  and  _554
REMARK  221  A    between atoms: _556  and  _558
REMARK  222  A    between atoms: _558  and  _559
REMARK  223  A    between atoms: _558  and  _561
REMARK  224  A    between atoms: _561  and  _562
REMARK  225  A    between atoms: _567  and  _569
REMARK  226  A    between atoms: _569  and  _570
REMARK  227  A    between atoms: _572  and  _574
REMARK  228  A    between atoms: _574  and  _575
REMARK  229  A    between atoms: _574  and  _577
REMARK  230  A    between atoms: _577  and  _578
REMARK  231  A    between atoms: _584  and  _586
REMARK  232  A    between atoms: _586  and  _587
REMARK  233  A    between atoms: _586  and  _589
REMARK  234  A    between atoms: _589  and  _590
REMARK  235  A    between atoms: _596  and  _598
REMARK  236  A    between atoms: _598  and  _599
REMARK  237  A    between atoms: _598  and  _601
REMARK  238  A    between atoms: _601  and  _602
REMARK  239  A    between atoms: _605  and  _607
REMARK  240  A    between atoms: _607  and  _608
REMARK  241  A    between atoms: _607  and  _610
REMARK  242  A    between atoms: _610  and  _611
REMARK  243  A    between atoms: _611  and  _612
REMARK  244  A    between atoms: _612  and  _613
REMARK  245  A    between atoms: _613  and  _614
REMARK  246  A    between atoms: _618  and  _620
REMARK  247  A    between atoms: _620  and  _621
REMARK  248  A    between atoms: _620  and  _623
REMARK  249  A    between atoms: _623  and  _624
REMARK  250  A    between atoms: _624  and  _625
REMARK  251  A    between atoms: _625  and  _626
REMARK                            x       y       z     vdW  Elec       q    Type
REMARK                         _______ _______ _______ _____ _____    ______ ____
ROOT
ATOM      1  NE  ARG A   1       6.149  18.692  25.628  0.00  0.00    -0.265 N 
ATOM      2  HE  ARG A   1       6.558  19.525  26.097  0.00  0.00    +0.259 HD
ATOM      3  CZ  ARG A   1       5.724  18.826  24.379  0.00  0.00    +0.342 C 
ATOM      4  NH2 ARG A   1       5.787  20.010  23.780  0.00  0.00    -0.292 N 
ATOM      5 HH21 ARG A   1       6.170  20.831  24.291  0.00  0.00    +0.255 HD
ATOM      6 HH22 ARG A   1       5.454  20.116  22.800  0.00  0.00    +0.255 HD
ATOM      7  NH1 ARG A   1       5.208  17.783  23.743  0.00  0.00    -0.292 N 
ATOM      8 HH11 ARG A   1       5.138  16.863  24.224  0.00  0.00    +0.255 HD
ATOM      9 HH12 ARG A   1       4.874  17.885  22.763  0.00  0.00    +0.255 HD
ENDROOT
BRANCH   1  10
ATOM     10  CD  ARG A   1       6.078  17.444  26.385  0.00  0.00    +0.174 C 
BRANCH  10  11
ATOM     11  CG  ARG A   1       6.495  17.641  27.814  0.00  0.00    +0.045 C 
BRANCH  11  12
ATOM     12  CB  ARG A   1       6.200  16.405  28.632  0.00  0.00    +0.029 C 
BRANCH  12  13
ATOM     13  CA  ARG A   1       4.897  16.471  29.436  0.00  0.00    +0.133 C 
BRANCH  13  14
ATOM     14  N   ARG A   1       4.978  17.563  30.415  0.00  0.00    -0.239 NA
ATOM     15  H   ARG A   1       5.820  18.173  30.408  0.00  0.00    +0.142 HD
ENDBRANCH  13  14
BRANCH  13  16
ATOM     16  C   ARG A   1       4.689  15.137  30.155  0.00  0.00    +0.224 C 
ATOM     17  O   ARG A   1       5.442  14.801  31.073  0.00  0.00    -0.287 OA
ENDBRANCH  13  16
ENDBRANCH  12  13
ENDBRANCH  11  12
ENDBRANCH  10  11
ENDBRANCH   1  10
TORSDOF 6
REMARK  Name = ../refined-set-2016/2am4/2am4_pocket.pdb
REMARK  251 active torsions:
REMARK  status: ('A' for Active; 'I' for Inactive)
REMARK    1  A    between atoms: _1  and  _3
REMARK    2  A    between atoms: _3  and  _4
REMARK    3  A    between atoms: _3  and  _6
REMARK    4  A    between atoms: _6  and  _7
REMARK    5  A    between atoms: _10  and  _12
REMARK    6  A    between atoms: _12  and  _13
REMARK    7  A    between atoms: _12  and  _15
REMARK    8  A    between atoms: _18  and  _20
REMARK    9  A    between atoms: _20  and  _21
REMARK   10  A    between atoms: _20  and  _23
REMARK   11  A    between atoms: _23  and  _24
REMARK   12  A    between atoms: _27  and  _29
REMARK   13  A    between atoms: _29  and  _30
REMARK   14  A    between atoms: _33  and  _35
REMARK   15  A    between atoms: _35  and  _36
REMARK   16  A    between atoms: _35  and  _38
REMARK   17  A    between atoms: _38  and  _39
REMARK   18  A    between atoms: _39  and  _109
REMARK   19  A    between atoms: _40  and  _42
REMARK   20  A    between atoms: _42  and  _43
REMARK   21  A    between atoms: _42  and  _45
REMARK   22  A    between atoms: _45  and  _46
REMARK   23  A    between atoms: _49  and  _51
REMARK   24  A    between atoms: _51  and  _52
REMARK   25  A    between atoms: _51  and  _54
REMARK   26  A    between atoms: _54  and  _55
REMARK   27  A    between atoms: _55  and  _56
REMARK   28  A    between atoms: _56  and  _57
REMARK   29  A    between atoms: _66  and  _68
REMARK   30  A    between atoms: _68  and  _69
REMARK   31  A    between atoms: _68  and  _71
REMARK   32  A    between atoms: _74  and  _76
REMARK   33  A    between atoms: _76  and  _77
REMARK   34  A    between atoms: _76  and  _79
REMARK   35  A    between atoms: _79  and  _80
REMARK   36  A    between atoms: _82  and  _84
REMARK   37  A    between atoms: _84  and  _85
REMARK   38  A    between atoms: _84  and  _87
REMARK   39  A    between atoms: _87  and  _88
REMARK   40  A    between atoms: _88  and  _89
REMARK   41  A    between atoms: _94  and  _96
REMARK   42  A    between atoms: _96  and  _97
REMARK   43  A    between atoms: _96  and  _99
REMARK   44  A    between atoms: _99  and  _100
REMARK   45  A    between atoms: _103  and  _105
REMARK   46  A    between atoms: _105  and  _106
REMARK   47  A    between atoms: _105  and  _108
REMARK   48  A    between atoms: _108  and  _109
REMARK   49  A    between atoms: _110  and  _112
REMARK   50  A    between atoms: _112  and  _113
REMARK   51  A    between atoms: _115  and  _117
REMARK   52  A    between atoms: _117  and  _118
REMARK   53  A    between atoms: _117  and  _120
REMARK   54  A    between atoms: _120  and  _121
REMARK   55  A    between atoms: _124  and  _126
REMARK   56  A    between atoms: _126  and  _127
REMARK   57  A    between atoms: _126  and  _129
REMARK   58  A    between atoms: _129  and  _130
REMARK   59  A    between atoms: _130  and  _131
REMARK   60  A    between atoms: _136  and  _138
REMARK   61  A    between atoms: _138  and  _139
REMARK   62  A    between atoms: _138  and  _141
REMARK   63  A    between atoms: _141  and  _142
REMARK   64  A    between atoms: _145  and  _147
REMARK   65  A    between atoms: _147  and  _148
REMARK   66  A    between atoms: _147  and  _150
REMARK   67  A    between atoms: _150  and  _151
REMARK   68  A    between atoms: _154  and  _156
REMARK   69  A    between atoms: _156  and  _157
REMARK   70  A    between atoms: _156  and  _159
REMARK   71  A    between atoms: _159  and  _160
REMARK   72  A    between atoms: _166  and  _168
REMARK   73  A    between atoms: _168  and  _169
REMARK   74  A    between atoms: _168  and  _171
REMARK   75  A    between atoms: _171  and  _172
REMARK   76  A    between atoms: _172  and  _173
REMARK   77  A    between atoms: _178  and  _180
REMARK   78  A    between atoms: _180  and  _181
REMARK   79  A    between atoms: _183  and  _185
REMARK   80  A    between atoms: _185  and  _186
REMARK   81  A    between atoms: _185  and  _188
REMARK   82  A    between atoms: _188  and  _189
REMARK   83  A    between atoms: _194  and  _195
REMARK   84  A    between atoms: _197  and  _199
REMARK   85  A    between atoms: _199  and  _200
REMARK   86  A    between atoms: _199  and  _202
REMARK   87  A    between atoms: _202  and  _203
REMARK   88  A    between atoms: _208  and  _209
REMARK   89  A    between atoms: _211  and  _213
REMARK   90  A    between atoms: _213  and  _214
REMARK   91  A    between atoms: _213  and  _216
REMARK   92  A    between atoms: _216  and  _217
REMARK   93  A    between atoms: _217  and  _218
REMARK   94  A    between atoms: _218  and  _219
REMARK   95  A    between atoms: _219  and  _220
REMARK   96  A    between atoms: _224  and  _226
REMARK   97  A    between atoms: _226  and  _227
REMARK   98  A    between atoms: _226  and  _229
REMARK   99  A    between atoms: _229  and  _230
REMARK  100  A    between atoms: _233  and  _235
REMARK  101  A    between atoms: _235  and  _236
REMARK  102  A    between atoms: _239  and  _241
REMARK  103  A    between atoms: _241  and  _242
REMARK  104  A    between atoms: _241  and  _244
REMARK  105  A    between atoms: _244  and  _245
REMARK  106  A    between atoms: _245  and  _246
REMARK  107  A    between atoms: _246  and  _247
REMARK  108  A    between atoms: _256  and  _258
REMARK  109  A    between atoms: _258  and  _259
REMARK  110  A    between atoms: _258  and  _261
REMARK  111  A    between atoms: _261  and  _262
REMARK  112  A    between atoms: _267  and  _269
REMARK  113  A    between atoms: _269  and  _270
REMARK  114  A    between atoms: _269  and  _272
REMARK  115  A    between atoms: _272  and  _273
REMARK  116  A    between atoms: _278  and  _279
REMARK  117  A    between atoms: _281  and  _283
REMARK  118  A    between atoms: _283  and  _284
REMARK  119  A    between atoms: _287  and  _289
REMARK  120  A    between atoms: _289  and  _290
REMARK  121  A    between atoms: _289  and  _292
REMARK  122  A    between atoms: _295  and  _297
REMARK  123  A    between atoms: _297  and  _298
REMARK  124  A    between atoms: _297  and  _300
REMARK  125  A    between atoms: _303  and  _305
REMARK  126  A    between atoms: _305  and  _306
REMARK  127  A    between atoms: _305  and  _308
REMARK  128  A    between atoms: _308  and  _309
REMARK  129  A    between atoms: _309  and  _310
REMARK  130  A    between atoms: _313  and  _315
REMARK  131  A    between atoms: _315  and  _316
REMARK  132  A    between atoms: _315  and  _318
REMARK  133  A    between atoms: _318  and  _319
REMARK  134  A    between atoms: _322  and  _324
REMARK  135  A    between atoms: _324  and  _325
REMARK  136  A    between atoms: _324  and  _327
REMARK  137  A    between atoms: _327  and  _328
REMARK  138  A    between atoms: _328  and  _330
REMARK  139  A    between atoms: _330  and  MN_635
REMARK  140  A    between atoms: _331  and  _333
REMARK  141  A    between atoms: _333  and  _334
REMARK  142  A    between atoms: _333  and  _336
REMARK  143  A    between atoms: _336  and  _337
REMARK  144  A    between atoms: _340  and  _342
REMARK  145  A    between atoms: _342  and  _343
REMARK  146  A    between atoms: _342  and  _345
REMARK  147  A    between atoms: _345  and  _346
REMARK  148  A    between atoms: _353  and  _354
REMARK  149  A    between atoms: _359  and  _361
REMARK  150  A    between atoms: _361  and  _362
REMARK  151  A    between atoms: _364  and  _366
REMARK  152  A    between atoms: _366  and  _367
REMARK  153  A    between atoms: _366  and  _369
REMARK  154  A    between atoms: _369  and  _370
REMARK  155  A    between atoms: _373  and  _375
REMARK  156  A    between atoms: _375  and  _376
REMARK  157  A    between atoms: _378  and  _380
REMARK  158  A    between atoms: _380  and  _381
REMARK  159  A    between atoms: _380  and  _383
REMARK  160  A    between atoms: _383  and  _384
REMARK  161  A    between atoms: _394  and  _396
REMARK  162  A    between atoms: _396  and  _397
REMARK  163  A    between atoms: _400  and  _402
REMARK  164  A    between atoms: _402  and  _403
REMARK  165  A    between atoms: _402  and  _405
REMARK  166  A    between atoms: _405  and  _406
REMARK  167  A    between atoms: _412  and  _414
REMARK  168  A    between atoms: _414  and  _415
REMARK  169  A    between atoms: _414  and  _417
REMARK  170  A    between atoms: _417  and  _418
REMARK  171  A    between atoms: _428  and  _430
REMARK  172  A    between atoms: _430  and  _431
REMARK  173  A    between atoms: _430  and  _433
REMARK  174  A    between atoms: _433  and  _434
REMARK  175  A    between atoms: _437  and  _439
REMARK  176  A    between atoms: _439  and  _440
REMARK  177  A    between atoms: _439  and  _442
REMARK  178  A    between atoms: _442  and  _443
REMARK  179  A    between atoms: _446  and  _448
REMARK  180  A    between atoms: _448  and  _449
REMARK  181  A    between atoms: _448  and  _451
REMARK  182  A    between atoms: _451  and  _452
REMARK  183  A    between atoms: _462  and  _464
REMARK  184  A    between atoms: _464  and  _465
REMARK  185  A    between atoms: _464  and  _467
REMARK  186  A    between atoms: _467  and  _468
REMARK  187  A    between atoms: _468  and  _469
REMARK  188  A    between atoms: _469  and  _470
REMARK  189  A    between atoms: _479  and  _481
REMARK  190  A    between atoms: _481  and  _482
REMARK  191  A    between atoms: _481  and  _484
REMARK  192  A    between atoms: _484  and  _485
REMARK  193  A    between atoms: _488  and  _490
REMARK  194  A    between atoms: _490  and  _491
REMARK  195  A    between atoms: _490  and  _493
REMARK  196  A    between atoms: _493  and  _494
REMARK  197  A    between atoms: _500  and  _502
REMARK  198  A    between atoms: _502  and  _503
REMARK  199  A    between atoms: _505  and  _507
REMARK  200  A    between atoms: _507  and  _508
REMARK  201  A    between atoms: _507  and  _510
REMARK  202  A    between atoms: _510  and  _511
REMARK  203  A    between atoms: _511  and  _512
REMARK  204  A    between atoms: _512  and  _513
REMARK  205  A    between atoms: _522  and  _524
REMARK  206  A    between atoms: _524  and  _525
REMARK  207  A    between atoms: _524  and  _527
REMARK  208  A    between atoms: _527  and  _528
REMARK  209  A    between atoms: _528  and  _529
REMARK  210  A    between atoms: _529  and  _530
REMARK  211  A    between atoms: _530  and  _531
REMARK  212  A    between atoms: _535  and  _537
REMARK  213  A    between atoms: _537  and  _538
REMARK  214  A    between atoms: _540  and  _542
REMARK  215  A    between atoms: _542  and  _543
REMARK  216  A    between atoms: _542  and  _545
REMARK  217  A    between atoms: _548  and  _550
REMARK  218  A    between atoms: _550  and  _551
REMARK  219  A    between atoms: _550  and  _553
REMARK  220  A    between atoms: _553  and  _554
REMARK  221  A    between atoms: _556  and  _558
REMARK  222  A    between atoms: _558  and  _559
REMARK  223  A    between atoms: _558  and  _561
REMARK  224  A    between atoms: _561  and  _562
REMARK  225  A    between atoms: _567  and  _569
REMARK  226  A    between atoms: _569  and  _570
REMARK  227  A    between atoms: _572  and  _574
REMARK  228  A    between atoms: _574  and  _575
REMARK  229  A    between atoms: _574  and  _577
REMARK  230  A    between atoms: _577  and  _578
REMARK  231  A    between atoms: _584  and  _586
REMARK  232  A    between atoms: _586  and  _587
REMARK  233  A    between atoms: _586  and  _589
REMARK  234  A    between atoms: _589  and  _590
REMARK  235  A    between atoms: _596  and  _598
REMARK  236  A    between atoms: _598  and  _599
REMARK  237  A    between atoms: _598  and  _601
REMARK  238  A    between atoms: _601  and  _602
REMARK  239  A    between atoms: _605  and  _607
REMARK  240  A    between atoms: _607  and  _608
REMARK  241  A    between atoms: _607  and  _610
REMARK  242  A    between atoms: _610  and  _611
REMARK  243  A    between atoms: _611  and  _612
REMARK  244  A    between atoms: _612  and  _613
REMARK  245  A    between atoms: _613  and  _614
REMARK  246  A    between atoms: _618  and  _620
REMARK  247  A    between atoms: _620  and  _621
REMARK  248  A    between atoms: _620  and  _623
REMARK  249  A    between atoms: _623  and  _624
REMARK  250  A    between atoms: _624  and  _625
REMARK  251  A    between atoms: _625  and  _626
REMARK                            x       y       z     vdW  Elec       q    Type
REMARK                         _______ _______ _______ _____ _____    ______ ____
ROOT
ATOM      1  O   HOH     1      -2.375  14.544  15.429  0.00  0.00    +0.000 OA
ENDROOT
TORSDOF 0
REMARK  Name = ../refined-set-2016/2am4/2am4_pocket.pdb
REMARK  251 active torsions:
REMARK  status: ('A' for Active; 'I' for Inactive)
REMARK    1  A    between atoms: _1  and  _3
REMARK    2  A    between atoms: _3  and  _4
REMARK    3  A    between atoms: _3  and  _6
REMARK    4  A    between atoms: _6  and  _7
REMARK    5  A    between atoms: _10  and  _12
REMARK    6  A    between atoms: _12  and  _13
REMARK    7  A    between atoms: _12  and  _15
REMARK    8  A    between atoms: _18  and  _20
REMARK    9  A    between atoms: _20  and  _21
REMARK   10  A    between atoms: _20  and  _23
REMARK   11  A    between atoms: _23  and  _24
REMARK   12  A    between atoms: _27  and  _29
REMARK   13  A    between atoms: _29  and  _30
REMARK   14  A    between atoms: _33  and  _35
REMARK   15  A    between atoms: _35  and  _36
REMARK   16  A    between atoms: _35  and  _38
REMARK   17  A    between atoms: _38  and  _39
REMARK   18  A    between atoms: _39  and  _109
REMARK   19  A    between atoms: _40  and  _42
REMARK   20  A    between atoms: _42  and  _43
REMARK   21  A    between atoms: _42  and  _45
REMARK   22  A    between atoms: _45  and  _46
REMARK   23  A    between atoms: _49  and  _51
REMARK   24  A    between atoms: _51  and  _52
REMARK   25  A    between atoms: _51  and  _54
REMARK   26  A    between atoms: _54  and  _55
REMARK   27  A    between atoms: _55  and  _56
REMARK   28  A    between atoms: _56  and  _57
REMARK   29  A    between atoms: _66  and  _68
REMARK   30  A    between atoms: _68  and  _69
REMARK   31  A    between atoms: _68  and  _71
REMARK   32  A    between atoms: _74  and  _76
REMARK   33  A    between atoms: _76  and  _77
REMARK   34  A    between atoms: _76  and  _79
REMARK   35  A    between atoms: _79  and  _80
REMARK   36  A    between atoms: _82  and  _84
REMARK   37  A    between atoms: _84  and  _85
REMARK   38  A    between atoms: _84  and  _87
REMARK   39  A    between atoms: _87  and  _88
REMARK   40  A    between atoms: _88  and  _89
REMARK   41  A    between atoms: _94  and  _96
REMARK   42  A    between atoms: _96  and  _97
REMARK   43  A    between atoms: _96  and  _99
REMARK   44  A    between atoms: _99  and  _100
REMARK   45  A    between atoms: _103  and  _105
REMARK   46  A    between atoms: _105  and  _106
REMARK   47  A    between atoms: _105  and  _108
REMARK   48  A    between atoms: _108  and  _109
REMARK   49  A    between atoms: _110  and  _112
REMARK   50  A    between atoms: _112  and  _113
REMARK   51  A    between atoms: _115  and  _117
REMARK   52  A    between atoms: _117  and  _118
REMARK   53  A    between atoms: _117  and  _120
REMARK   54  A    between atoms: _120  and  _121
REMARK   55  A    between atoms: _124  and  _126
REMARK   56  A    between atoms: _126  and  _127
REMARK   57  A    between atoms: _126  and  _129
REMARK   58  A    between atoms: _129  and  _130
REMARK   59  A    between atoms: _130  and  _131
REMARK   60  A    between atoms: _136  and  _138
REMARK   61  A    between atoms: _138  and  _139
REMARK   62  A    between atoms: _138  and  _141
REMARK   63  A    between atoms: _141  and  _142
REMARK   64  A    between atoms: _145  and  _147
REMARK   65  A    between atoms: _147  and  _148
REMARK   66  A    between atoms: _147  and  _150
REMARK   67  A    between atoms: _150  and  _151
REMARK   68  A    between atoms: _154  and  _156
REMARK   69  A    between atoms: _156  and  _157
REMARK   70  A    between atoms: _156  and  _159
REMARK   71  A    between atoms: _159  and  _160
REMARK   72  A    between atoms: _166  and  _168
REMARK   73  A    between atoms: _168  and  _169
REMARK   74  A    between atoms: _168  and  _171
REMARK   75  A    between atoms: _171  and  _172
REMARK   76  A    between atoms: _172  and  _173
REMARK   77  A    between atoms: _178  and  _180
REMARK   78  A    between atoms: _180  and  _181
REMARK   79  A    between atoms: _183  and  _185
REMARK   80  A    between atoms: _185  and  _186
REMARK   81  A    between atoms: _185  and  _188
REMARK   82  A    between atoms: _188  and  _189
REMARK   83  A    between atoms: _194  and  _195
REMARK   84  A    between atoms: _197  and  _199
REMARK   85  A    between atoms: _199  and  _200
REMARK   86  A    between atoms: _199  and  _202
REMARK   87  A    between atoms: _202  and  _203
REMARK   88  A    between atoms: _208  and  _209
REMARK   89  A    between atoms: _211  and  _213
REMARK   90  A    between atoms: _213  and  _214
REMARK   91  A    between atoms: _213  and  _216
REMARK   92  A    between atoms: _216  and  _217
REMARK   93  A    between atoms: _217  and  _218
REMARK   94  A    between atoms: _218  and  _219
REMARK   95  A    between atoms: _219  and  _220
REMARK   96  A    between atoms: _224  and  _226
REMARK   97  A    between atoms: _226  and  _227
REMARK   98  A    between atoms: _226  and  _229
REMARK   99  A    between atoms: _229  and  _230
REMARK  100  A    between atoms: _233  and  _235
REMARK  101  A    between atoms: _235  and  _236
REMARK  102  A    between atoms: _239  and  _241
REMARK  103  A    between atoms: _241  and  _242
REMARK  104  A    between atoms: _241  and  _244
REMARK  105  A    between atoms: _244  and  _245
REMARK  106  A    between atoms: _245  and  _246
REMARK  107  A    between atoms: _246  and  _247
REMARK  108  A    between atoms: _256  and  _258
REMARK  109  A    between atoms: _258  and  _259
REMARK  110  A    between atoms: _258  and  _261
REMARK  111  A    between atoms: _261  and  _262
REMARK  112  A    between atoms: _267  and  _269
REMARK  113  A    between atoms: _269  and  _270
REMARK  114  A    between atoms: _269  and  _272
REMARK  115  A    between atoms: _272  and  _273
REMARK  116  A    between atoms: _278  and  _279
REMARK  117  A    between atoms: _281  and  _283
REMARK  118  A    between atoms: _283  and  _284
REMARK  119  A    between atoms: _287  and  _289
REMARK  120  A    between atoms: _289  and  _290
REMARK  121  A    between atoms: _289  and  _292
REMARK  122  A    between atoms: _295  and  _297
REMARK  123  A    between atoms: _297  and  _298
REMARK  124  A    between atoms: _297  and  _300
REMARK  125  A    between atoms: _303  and  _305
REMARK  126  A    between atoms: _305  and  _306
REMARK  127  A    between atoms: _305  and  _308
REMARK  128  A    between atoms: _308  and  _309
REMARK  129  A    between atoms: _309  and  _310
REMARK  130  A    between atoms: _313  and  _315
REMARK  131  A    between atoms: _315  and  _316
REMARK  132  A    between atoms: _315  and  _318
REMARK  133  A    between atoms: _318  and  _319
REMARK  134  A    between atoms: _322  and  _324
REMARK  135  A    between atoms: _324  and  _325
REMARK  136  A    between atoms: _324  and  _327
REMARK  137  A    between atoms: _327  and  _328
REMARK  138  A    between atoms: _328  and  _330
REMARK  139  A    between atoms: _330  and  MN_635
REMARK  140  A    between atoms: _331  and  _333
REMARK  141  A    between atoms: _333  and  _334
REMARK  142  A    between atoms: _333  and  _336
REMARK  143  A    between atoms: _336  and  _337
REMARK  144  A    between atoms: _340  and  _342
REMARK  145  A    between atoms: _342  and  _343
REMARK  146  A    between atoms: _342  and  _345
REMARK  147  A    between atoms: _345  and  _346
REMARK  148  A    between atoms: _353  and  _354
REMARK  149  A    between atoms: _359  and  _361
REMARK  150  A    between atoms: _361  and  _362
REMARK  151  A    between atoms: _364  and  _366
REMARK  152  A    between atoms: _366  and  _367
REMARK  153  A    between atoms: _366  and  _369
REMARK  154  A    between atoms: _369  and  _370
REMARK  155  A    between atoms: _373  and  _375
REMARK  156  A    between atoms: _375  and  _376
REMARK  157  A    between atoms: _378  and  _380
REMARK  158  A    between atoms: _380  and  _381
REMARK  159  A    between atoms: _380  and  _383
REMARK  160  A    between atoms: _383  and  _384
REMARK  161  A    between atoms: _394  and  _396
REMARK  162  A    between atoms: _396  and  _397
REMARK  163  A    between atoms: _400  and  _402
REMARK  164  A    between atoms: _402  and  _403
REMARK  165  A    between atoms: _402  and  _405
REMARK  166  A    between atoms: _405  and  _406
REMARK  167  A    between atoms: _412  and  _414
REMARK  168  A    between atoms: _414  and  _415
REMARK  169  A    between atoms: _414  and  _417
REMARK  170  A    between atoms: _417  and  _418
REMARK  171  A    between atoms: _428  and  _430
REMARK  172  A    between atoms: _430  and  _431
REMARK  173  A    between atoms: _430  and  _433
REMARK  174  A    between atoms: _433  and  _434
REMARK  175  A    between atoms: _437  and  _439
REMARK  176  A    between atoms: _439  and  _440
REMARK  177  A    between atoms: _439  and  _442
REMARK  178  A    between atoms: _442  and  _443
REMARK  179  A    between atoms: _446  and  _448
REMARK  180  A    between atoms: _448  and  _449
REMARK  181  A    between atoms: _448  and  _451
REMARK  182  A    between atoms: _451  and  _452
REMARK  183  A    between atoms: _462  and  _464
REMARK  184  A    between atoms: _464  and  _465
REMARK  185  A    between atoms: _464  and  _467
REMARK  186  A    between atoms: _467  and  _468
REMARK  187  A    between atoms: _468  and  _469
REMARK  188  A    between atoms: _469  and  _470
REMARK  189  A    between atoms: _479  and  _481
REMARK  190  A    between atoms: _481  and  _482
REMARK  191  A    between atoms: _481  and  _484
REMARK  192  A    between atoms: _484  and  _485
REMARK  193  A    between atoms: _488  and  _490
REMARK  194  A    between atoms: _490  and  _491
REMARK  195  A    between atoms: _490  and  _493
REMARK  196  A    between atoms: _493  and  _494
REMARK  197  A    between atoms: _500  and  _502
REMARK  198  A    between atoms: _502  and  _503
REMARK  199  A    between atoms: _505  and  _507
REMARK  200  A    between atoms: _507  and  _508
REMARK  201  A    between atoms: _507  and  _510
REMARK  202  A    between atoms: _510  and  _511
REMARK  203  A    between atoms: _511  and  _512
REMARK  204  A    between atoms: _512  and  _513
REMARK  205  A    between atoms: _522  and  _524
REMARK  206  A    between atoms: _524  and  _525
REMARK  207  A    between atoms: _524  and  _527
REMARK  208  A    between atoms: _527  and  _528
REMARK  209  A    between atoms: _528  and  _529
REMARK  210  A    between atoms: _529  and  _530
REMARK  211  A    between atoms: _530  and  _531
REMARK  212  A    between atoms: _535  and  _537
REMARK  213  A    between atoms: _537  and  _538
REMARK  214  A    between atoms: _540  and  _542
REMARK  215  A    between atoms: _542  and  _543
REMARK  216  A    between atoms: _542  and  _545
REMARK  217  A    between atoms: _548  and  _550
REMARK  218  A    between atoms: _550  and  _551
REMARK  219  A    between atoms: _550  and  _553
REMARK  220  A    between atoms: _553  and  _554
REMARK  221  A    between atoms: _556  and  _558
REMARK  222  A    between atoms: _558  and  _559
REMARK  223  A    between atoms: _558  and  _561
REMARK  224  A    between atoms: _561  and  _562
REMARK  225  A    between atoms: _567  and  _569
REMARK  226  A    between atoms: _569  and  _570
REMARK  227  A    between atoms: _572  and  _574
REMARK  228  A    between atoms: _574  and  _575
REMARK  229  A    between atoms: _574  and  _577
REMARK  230  A    between atoms: _577  and  _578
REMARK  231  A    between atoms: _584  and  _586
REMARK  232  A    between atoms: _586  and  _587
REMARK  233  A    between atoms: _586  and  _589
REMARK  234  A    between atoms: _589  and  _590
REMARK  235  A    between atoms: _596  and  _598
REMARK  236  A    between atoms: _598  and  _599
REMARK  237  A    between atoms: _598  and  _601
REMARK  238  A    between atoms: _601  and  _602
REMARK  239  A    between atoms: _605  and  _607
REMARK  240  A    between atoms: _607  and  _608
REMARK  241  A    between atoms: _607  and  _610
REMARK  242  A    between atoms: _610  and  _611
REMARK  243  A    between atoms: _611  and  _612
REMARK  244  A    between atoms: _612  and  _613
REMARK  245  A    between atoms: _613  and  _614
REMARK  246  A    between atoms: _618  and  _620
REMARK  247  A    between atoms: _620  and  _621
REMARK  248  A    between atoms: _620  and  _623
REMARK  249  A    between atoms: _623  and  _624
REMARK  250  A    between atoms: _624  and  _625
REMARK  251  A    between atoms: _625  and  _626
REMARK                            x       y       z     vdW  Elec       q    Type
REMARK                         _______ _______ _______ _____ _____    ______ ____
ROOT
ATOM      1  O   HOH     1      -2.566  24.410  13.844  0.00  0.00    +0.000 OA
ENDROOT
TORSDOF 0
REMARK  Name = ../refined-set-2016/2am4/2am4_pocket.pdb
REMARK  251 active torsions:
REMARK  status: ('A' for Active; 'I' for Inactive)
REMARK    1  A    between atoms: _1  and  _3
REMARK    2  A    between atoms: _3  and  _4
REMARK    3  A    between atoms: _3  and  _6
REMARK    4  A    between atoms: _6  and  _7
REMARK    5  A    between atoms: _10  and  _12
REMARK    6  A    between atoms: _12  and  _13
REMARK    7  A    between atoms: _12  and  _15
REMARK    8  A    between atoms: _18  and  _20
REMARK    9  A    between atoms: _20  and  _21
REMARK   10  A    between atoms: _20  and  _23
REMARK   11  A    between atoms: _23  and  _24
REMARK   12  A    between atoms: _27  and  _29
REMARK   13  A    between atoms: _29  and  _30
REMARK   14  A    between atoms: _33  and  _35
REMARK   15  A    between atoms: _35  and  _36
REMARK   16  A    between atoms: _35  and  _38
REMARK   17  A    between atoms: _38  and  _39
REMARK   18  A    between atoms: _39  and  _109
REMARK   19  A    between atoms: _40  and  _42
REMARK   20  A    between atoms: _42  and  _43
REMARK   21  A    between atoms: _42  and  _45
REMARK   22  A    between atoms: _45  and  _46
REMARK   23  A    between atoms: _49  and  _51
REMARK   24  A    between atoms: _51  and  _52
REMARK   25  A    between atoms: _51  and  _54
REMARK   26  A    between atoms: _54  and  _55
REMARK   27  A    between atoms: _55  and  _56
REMARK   28  A    between atoms: _56  and  _57
REMARK   29  A    between atoms: _66  and  _68
REMARK   30  A    between atoms: _68  and  _69
REMARK   31  A    between atoms: _68  and  _71
REMARK   32  A    between atoms: _74  and  _76
REMARK   33  A    between atoms: _76  and  _77
REMARK   34  A    between atoms: _76  and  _79
REMARK   35  A    between atoms: _79  and  _80
REMARK   36  A    between atoms: _82  and  _84
REMARK   37  A    between atoms: _84  and  _85
REMARK   38  A    between atoms: _84  and  _87
REMARK   39  A    between atoms: _87  and  _88
REMARK   40  A    between atoms: _88  and  _89
REMARK   41  A    between atoms: _94  and  _96
REMARK   42  A    between atoms: _96  and  _97
REMARK   43  A    between atoms: _96  and  _99
REMARK   44  A    between atoms: _99  and  _100
REMARK   45  A    between atoms: _103  and  _105
REMARK   46  A    between atoms: _105  and  _106
REMARK   47  A    between atoms: _105  and  _108
REMARK   48  A    between atoms: _108  and  _109
REMARK   49  A    between atoms: _110  and  _112
REMARK   50  A    between atoms: _112  and  _113
REMARK   51  A    between atoms: _115  and  _117
REMARK   52  A    between atoms: _117  and  _118
REMARK   53  A    between atoms: _117  and  _120
REMARK   54  A    between atoms: _120  and  _121
REMARK   55  A    between atoms: _124  and  _126
REMARK   56  A    between atoms: _126  and  _127
REMARK   57  A    between atoms: _126  and  _129
REMARK   58  A    between atoms: _129  and  _130
REMARK   59  A    between atoms: _130  and  _131
REMARK   60  A    between atoms: _136  and  _138
REMARK   61  A    between atoms: _138  and  _139
REMARK   62  A    between atoms: _138  and  _141
REMARK   63  A    between atoms: _141  and  _142
REMARK   64  A    between atoms: _145  and  _147
REMARK   65  A    between atoms: _147  and  _148
REMARK   66  A    between atoms: _147  and  _150
REMARK   67  A    between atoms: _150  and  _151
REMARK   68  A    between atoms: _154  and  _156
REMARK   69  A    between atoms: _156  and  _157
REMARK   70  A    between atoms: _156  and  _159
REMARK   71  A    between atoms: _159  and  _160
REMARK   72  A    between atoms: _166  and  _168
REMARK   73  A    between atoms: _168  and  _169
REMARK   74  A    between atoms: _168  and  _171
REMARK   75  A    between atoms: _171  and  _172
REMARK   76  A    between atoms: _172  and  _173
REMARK   77  A    between atoms: _178  and  _180
REMARK   78  A    between atoms: _180  and  _181
REMARK   79  A    between atoms: _183  and  _185
REMARK   80  A    between atoms: _185  and  _186
REMARK   81  A    between atoms: _185  and  _188
REMARK   82  A    between atoms: _188  and  _189
REMARK   83  A    between atoms: _194  and  _195
REMARK   84  A    between atoms: _197  and  _199
REMARK   85  A    between atoms: _199  and  _200
REMARK   86  A    between atoms: _199  and  _202
REMARK   87  A    between atoms: _202  and  _203
REMARK   88  A    between atoms: _208  and  _209
REMARK   89  A    between atoms: _211  and  _213
REMARK   90  A    between atoms: _213  and  _214
REMARK   91  A    between atoms: _213  and  _216
REMARK   92  A    between atoms: _216  and  _217
REMARK   93  A    between atoms: _217  and  _218
REMARK   94  A    between atoms: _218  and  _219
REMARK   95  A    between atoms: _219  and  _220
REMARK   96  A    between atoms: _224  and  _226
REMARK   97  A    between atoms: _226  and  _227
REMARK   98  A    between atoms: _226  and  _229
REMARK   99  A    between atoms: _229  and  _230
REMARK  100  A    between atoms: _233  and  _235
REMARK  101  A    between atoms: _235  and  _236
REMARK  102  A    between atoms: _239  and  _241
REMARK  103  A    between atoms: _241  and  _242
REMARK  104  A    between atoms: _241  and  _244
REMARK  105  A    between atoms: _244  and  _245
REMARK  106  A    between atoms: _245  and  _246
REMARK  107  A    between atoms: _246  and  _247
REMARK  108  A    between atoms: _256  and  _258
REMARK  109  A    between atoms: _258  and  _259
REMARK  110  A    between atoms: _258  and  _261
REMARK  111  A    between atoms: _261  and  _262
REMARK  112  A    between atoms: _267  and  _269
REMARK  113  A    between atoms: _269  and  _270
REMARK  114  A    between atoms: _269  and  _272
REMARK  115  A    between atoms: _272  and  _273
REMARK  116  A    between atoms: _278  and  _279
REMARK  117  A    between atoms: _281  and  _283
REMARK  118  A    between atoms: _283  and  _284
REMARK  119  A    between atoms: _287  and  _289
REMARK  120  A    between atoms: _289  and  _290
REMARK  121  A    between atoms: _289  and  _292
REMARK  122  A    between atoms: _295  and  _297
REMARK  123  A    between atoms: _297  and  _298
REMARK  124  A    between atoms: _297  and  _300
REMARK  125  A    between atoms: _303  and  _305
REMARK  126  A    between atoms: _305  and  _306
REMARK  127  A    between atoms: _305  and  _308
REMARK  128  A    between atoms: _308  and  _309
REMARK  129  A    between atoms: _309  and  _310
REMARK  130  A    between atoms: _313  and  _315
REMARK  131  A    between atoms: _315  and  _316
REMARK  132  A    between atoms: _315  and  _318
REMARK  133  A    between atoms: _318  and  _319
REMARK  134  A    between atoms: _322  and  _324
REMARK  135  A    between atoms: _324  and  _325
REMARK  136  A    between atoms: _324  and  _327
REMARK  137  A    between atoms: _327  and  _328
REMARK  138  A    between atoms: _328  and  _330
REMARK  139  A    between atoms: _330  and  MN_635
REMARK  140  A    between atoms: _331  and  _333
REMARK  141  A    between atoms: _333  and  _334
REMARK  142  A    between atoms: _333  and  _336
REMARK  143  A    between atoms: _336  and  _337
REMARK  144  A    between atoms: _340  and  _342
REMARK  145  A    between atoms: _342  and  _343
REMARK  146  A    between atoms: _342  and  _345
REMARK  147  A    between atoms: _345  and  _346
REMARK  148  A    between atoms: _353  and  _354
REMARK  149  A    between atoms: _359  and  _361
REMARK  150  A    between atoms: _361  and  _362
REMARK  151  A    between atoms: _364  and  _366
REMARK  152  A    between atoms: _366  and  _367
REMARK  153  A    between atoms: _366  and  _369
REMARK  154  A    between atoms: _369  and  _370
REMARK  155  A    between atoms: _373  and  _375
REMARK  156  A    between atoms: _375  and  _376
REMARK  157  A    between atoms: _378  and  _380
REMARK  158  A    between atoms: _380  and  _381
REMARK  159  A    between atoms: _380  and  _383
REMARK  160  A    between atoms: _383  and  _384
REMARK  161  A    between atoms: _394  and  _396
REMARK  162  A    between atoms: _396  and  _397
REMARK  163  A    between atoms: _400  and  _402
REMARK  164  A    between atoms: _402  and  _403
REMARK  165  A    between atoms: _402  and  _405
REMARK  166  A    between atoms: _405  and  _406
REMARK  167  A    between atoms: _412  and  _414
REMARK  168  A    between atoms: _414  and  _415
REMARK  169  A    between atoms: _414  and  _417
REMARK  170  A    between atoms: _417  and  _418
REMARK  171  A    between atoms: _428  and  _430
REMARK  172  A    between atoms: _430  and  _431
REMARK  173  A    between atoms: _430  and  _433
REMARK  174  A    between atoms: _433  and  _434
REMARK  175  A    between atoms: _437  and  _439
REMARK  176  A    between atoms: _439  and  _440
REMARK  177  A    between atoms: _439  and  _442
REMARK  178  A    between atoms: _442  and  _443
REMARK  179  A    between atoms: _446  and  _448
REMARK  180  A    between atoms: _448  and  _449
REMARK  181  A    between atoms: _448  and  _451
REMARK  182  A    between atoms: _451  and  _452
REMARK  183  A    between atoms: _462  and  _464
REMARK  184  A    between atoms: _464  and  _465
REMARK  185  A    between atoms: _464  and  _467
REMARK  186  A    between atoms: _467  and  _468
REMARK  187  A    between atoms: _468  and  _469
REMARK  188  A    between atoms: _469  and  _470
REMARK  189  A    between atoms: _479  and  _481
REMARK  190  A    between atoms: _481  and  _482
REMARK  191  A    between atoms: _481  and  _484
REMARK  192  A    between atoms: _484  and  _485
REMARK  193  A    between atoms: _488  and  _490
REMARK  194  A    between atoms: _490  and  _491
REMARK  195  A    between atoms: _490  and  _493
REMARK  196  A    between atoms: _493  and  _494
REMARK  197  A    between atoms: _500  and  _502
REMARK  198  A    between atoms: _502  and  _503
REMARK  199  A    between atoms: _505  and  _507
REMARK  200  A    between atoms: _507  and  _508
REMARK  201  A    between atoms: _507  and  _510
REMARK  202  A    between atoms: _510  and  _511
REMARK  203  A    between atoms: _511  and  _512
REMARK  204  A    between atoms: _512  and  _513
REMARK  205  A    between atoms: _522  and  _524
REMARK  206  A    between atoms: _524  and  _525
REMARK  207  A    between atoms: _524  and  _527
REMARK  208  A    between atoms: _527  and  _528
REMARK  209  A    between atoms: _528  and  _529
REMARK  210  A    between atoms: _529  and  _530
REMARK  211  A    between atoms: _530  and  _531
REMARK  212  A    between atoms: _535  and  _537
REMARK  213  A    between atoms: _537  and  _538
REMARK  214  A    between atoms: _540  and  _542
REMARK  215  A    between atoms: _542  and  _543
REMARK  216  A    between atoms: _542  and  _545
REMARK  217  A    between atoms: _548  and  _550
REMARK  218  A    between atoms: _550  and  _551
REMARK  219  A    between atoms: _550  and  _553
REMARK  220  A    between atoms: _553  and  _554
REMARK  221  A    between atoms: _556  and  _558
REMARK  222  A    between atoms: _558  and  _559
REMARK  223  A    between atoms: _558  and  _561
REMARK  224  A    between atoms: _561  and  _562
REMARK  225  A    between atoms: _567  and  _569
REMARK  226  A    between atoms: _569  and  _570
REMARK  227  A    between atoms: _572  and  _574
REMARK  228  A    between atoms: _574  and  _575
REMARK  229  A    between atoms: _574  and  _577
REMARK  230  A    between atoms: _577  and  _578
REMARK  231  A    between atoms: _584  and  _586
REMARK  232  A    between atoms: _586  and  _587
REMARK  233  A    between atoms: _586  and  _589
REMARK  234  A    between atoms: _589  and  _590
REMARK  235  A    between atoms: _596  and  _598
REMARK  236  A    between atoms: _598  and  _599
REMARK  237  A    between atoms: _598  and  _601
REMARK  238  A    between atoms: _601  and  _602
REMARK  239  A    between atoms: _605  and  _607
REMARK  240  A    between atoms: _607  and  _608
REMARK  241  A    between atoms: _607  and  _610
REMARK  242  A    between atoms: _610  and  _611
REMARK  243  A    between atoms: _611  and  _612
REMARK  244  A    between atoms: _612  and  _613
REMARK  245  A    between atoms: _613  and  _614
REMARK  246  A    between atoms: _618  and  _620
REMARK  247  A    between atoms: _620  and  _621
REMARK  248  A    between atoms: _620  and  _623
REMARK  249  A    between atoms: _623  and  _624
REMARK  250  A    between atoms: _624  and  _625
REMARK  251  A    between atoms: _625  and  _626
REMARK                            x       y       z     vdW  Elec       q    Type
REMARK                         _______ _______ _______ _____ _____    ______ ____
ROOT
ATOM      1  O   HOH     1      -1.627  12.044  14.837  0.00  0.00    +0.000 OA
ENDROOT
TORSDOF 0
REMARK  Name = ../refined-set-2016/2am4/2am4_pocket.pdb
REMARK  251 active torsions:
REMARK  status: ('A' for Active; 'I' for Inactive)
REMARK    1  A    between atoms: _1  and  _3
REMARK    2  A    between atoms: _3  and  _4
REMARK    3  A    between atoms: _3  and  _6
REMARK    4  A    between atoms: _6  and  _7
REMARK    5  A    between atoms: _10  and  _12
REMARK    6  A    between atoms: _12  and  _13
REMARK    7  A    between atoms: _12  and  _15
REMARK    8  A    between atoms: _18  and  _20
REMARK    9  A    between atoms: _20  and  _21
REMARK   10  A    between atoms: _20  and  _23
REMARK   11  A    between atoms: _23  and  _24
REMARK   12  A    between atoms: _27  and  _29
REMARK   13  A    between atoms: _29  and  _30
REMARK   14  A    between atoms: _33  and  _35
REMARK   15  A    between atoms: _35  and  _36
REMARK   16  A    between atoms: _35  and  _38
REMARK   17  A    between atoms: _38  and  _39
REMARK   18  A    between atoms: _39  and  _109
REMARK   19  A    between atoms: _40  and  _42
REMARK   20  A    between atoms: _42  and  _43
REMARK   21  A    between atoms: _42  and  _45
REMARK   22  A    between atoms: _45  and  _46
REMARK   23  A    between atoms: _49  and  _51
REMARK   24  A    between atoms: _51  and  _52
REMARK   25  A    between atoms: _51  and  _54
REMARK   26  A    between atoms: _54  and  _55
REMARK   27  A    between atoms: _55  and  _56
REMARK   28  A    between atoms: _56  and  _57
REMARK   29  A    between atoms: _66  and  _68
REMARK   30  A    between atoms: _68  and  _69
REMARK   31  A    between atoms: _68  and  _71
REMARK   32  A    between atoms: _74  and  _76
REMARK   33  A    between atoms: _76  and  _77
REMARK   34  A    between atoms: _76  and  _79
REMARK   35  A    between atoms: _79  and  _80
REMARK   36  A    between atoms: _82  and  _84
REMARK   37  A    between atoms: _84  and  _85
REMARK   38  A    between atoms: _84  and  _87
REMARK   39  A    between atoms: _87  and  _88
REMARK   40  A    between atoms: _88  and  _89
REMARK   41  A    between atoms: _94  and  _96
REMARK   42  A    between atoms: _96  and  _97
REMARK   43  A    between atoms: _96  and  _99
REMARK   44  A    between atoms: _99  and  _100
REMARK   45  A    between atoms: _103  and  _105
REMARK   46  A    between atoms: _105  and  _106
REMARK   47  A    between atoms: _105  and  _108
REMARK   48  A    between atoms: _108  and  _109
REMARK   49  A    between atoms: _110  and  _112
REMARK   50  A    between atoms: _112  and  _113
REMARK   51  A    between atoms: _115  and  _117
REMARK   52  A    between atoms: _117  and  _118
REMARK   53  A    between atoms: _117  and  _120
REMARK   54  A    between atoms: _120  and  _121
REMARK   55  A    between atoms: _124  and  _126
REMARK   56  A    between atoms: _126  and  _127
REMARK   57  A    between atoms: _126  and  _129
REMARK   58  A    between atoms: _129  and  _130
REMARK   59  A    between atoms: _130  and  _131
REMARK   60  A    between atoms: _136  and  _138
REMARK   61  A    between atoms: _138  and  _139
REMARK   62  A    between atoms: _138  and  _141
REMARK   63  A    between atoms: _141  and  _142
REMARK   64  A    between atoms: _145  and  _147
REMARK   65  A    between atoms: _147  and  _148
REMARK   66  A    between atoms: _147  and  _150
REMARK   67  A    between atoms: _150  and  _151
REMARK   68  A    between atoms: _154  and  _156
REMARK   69  A    between atoms: _156  and  _157
REMARK   70  A    between atoms: _156  and  _159
REMARK   71  A    between atoms: _159  and  _160
REMARK   72  A    between atoms: _166  and  _168
REMARK   73  A    between atoms: _168  and  _169
REMARK   74  A    between atoms: _168  and  _171
REMARK   75  A    between atoms: _171  and  _172
REMARK   76  A    between atoms: _172  and  _173
REMARK   77  A    between atoms: _178  and  _180
REMARK   78  A    between atoms: _180  and  _181
REMARK   79  A    between atoms: _183  and  _185
REMARK   80  A    between atoms: _185  and  _186
REMARK   81  A    between atoms: _185  and  _188
REMARK   82  A    between atoms: _188  and  _189
REMARK   83  A    between atoms: _194  and  _195
REMARK   84  A    between atoms: _197  and  _199
REMARK   85  A    between atoms: _199  and  _200
REMARK   86  A    between atoms: _199  and  _202
REMARK   87  A    between atoms: _202  and  _203
REMARK   88  A    between atoms: _208  and  _209
REMARK   89  A    between atoms: _211  and  _213
REMARK   90  A    between atoms: _213  and  _214
REMARK   91  A    between atoms: _213  and  _216
REMARK   92  A    between atoms: _216  and  _217
REMARK   93  A    between atoms: _217  and  _218
REMARK   94  A    between atoms: _218  and  _219
REMARK   95  A    between atoms: _219  and  _220
REMARK   96  A    between atoms: _224  and  _226
REMARK   97  A    between atoms: _226  and  _227
REMARK   98  A    between atoms: _226  and  _229
REMARK   99  A    between atoms: _229  and  _230
REMARK  100  A    between atoms: _233  and  _235
REMARK  101  A    between atoms: _235  and  _236
REMARK  102  A    between atoms: _239  and  _241
REMARK  103  A    between atoms: _241  and  _242
REMARK  104  A    between atoms: _241  and  _244
REMARK  105  A    between atoms: _244  and  _245
REMARK  106  A    between atoms: _245  and  _246
REMARK  107  A    between atoms: _246  and  _247
REMARK  108  A    between atoms: _256  and  _258
REMARK  109  A    between atoms: _258  and  _259
REMARK  110  A    between atoms: _258  and  _261
REMARK  111  A    between atoms: _261  and  _262
REMARK  112  A    between atoms: _267  and  _269
REMARK  113  A    between atoms: _269  and  _270
REMARK  114  A    between atoms: _269  and  _272
REMARK  115  A    between atoms: _272  and  _273
REMARK  116  A    between atoms: _278  and  _279
REMARK  117  A    between atoms: _281  and  _283
REMARK  118  A    between atoms: _283  and  _284
REMARK  119  A    between atoms: _287  and  _289
REMARK  120  A    between atoms: _289  and  _290
REMARK  121  A    between atoms: _289  and  _292
REMARK  122  A    between atoms: _295  and  _297
REMARK  123  A    between atoms: _297  and  _298
REMARK  124  A    between atoms: _297  and  _300
REMARK  125  A    between atoms: _303  and  _305
REMARK  126  A    between atoms: _305  and  _306
REMARK  127  A    between atoms: _305  and  _308
REMARK  128  A    between atoms: _308  and  _309
REMARK  129  A    between atoms: _309  and  _310
REMARK  130  A    between atoms: _313  and  _315
REMARK  131  A    between atoms: _315  and  _316
REMARK  132  A    between atoms: _315  and  _318
REMARK  133  A    between atoms: _318  and  _319
REMARK  134  A    between atoms: _322  and  _324
REMARK  135  A    between atoms: _324  and  _325
REMARK  136  A    between atoms: _324  and  _327
REMARK  137  A    between atoms: _327  and  _328
REMARK  138  A    between atoms: _328  and  _330
REMARK  139  A    between atoms: _330  and  MN_635
REMARK  140  A    between atoms: _331  and  _333
REMARK  141  A    between atoms: _333  and  _334
REMARK  142  A    between atoms: _333  and  _336
REMARK  143  A    between atoms: _336  and  _337
REMARK  144  A    between atoms: _340  and  _342
REMARK  145  A    between atoms: _342  and  _343
REMARK  146  A    between atoms: _342  and  _345
REMARK  147  A    between atoms: _345  and  _346
REMARK  148  A    between atoms: _353  and  _354
REMARK  149  A    between atoms: _359  and  _361
REMARK  150  A    between atoms: _361  and  _362
REMARK  151  A    between atoms: _364  and  _366
REMARK  152  A    between atoms: _366  and  _367
REMARK  153  A    between atoms: _366  and  _369
REMARK  154  A    between atoms: _369  and  _370
REMARK  155  A    between atoms: _373  and  _375
REMARK  156  A    between atoms: _375  and  _376
REMARK  157  A    between atoms: _378  and  _380
REMARK  158  A    between atoms: _380  and  _381
REMARK  159  A    between atoms: _380  and  _383
REMARK  160  A    between atoms: _383  and  _384
REMARK  161  A    between atoms: _394  and  _396
REMARK  162  A    between atoms: _396  and  _397
REMARK  163  A    between atoms: _400  and  _402
REMARK  164  A    between atoms: _402  and  _403
REMARK  165  A    between atoms: _402  and  _405
REMARK  166  A    between atoms: _405  and  _406
REMARK  167  A    between atoms: _412  and  _414
REMARK  168  A    between atoms: _414  and  _415
REMARK  169  A    between atoms: _414  and  _417
REMARK  170  A    between atoms: _417  and  _418
REMARK  171  A    between atoms: _428  and  _430
REMARK  172  A    between atoms: _430  and  _431
REMARK  173  A    between atoms: _430  and  _433
REMARK  174  A    between atoms: _433  and  _434
REMARK  175  A    between atoms: _437  and  _439
REMARK  176  A    between atoms: _439  and  _440
REMARK  177  A    between atoms: _439  and  _442
REMARK  178  A    between atoms: _442  and  _443
REMARK  179  A    between atoms: _446  and  _448
REMARK  180  A    between atoms: _448  and  _449
REMARK  181  A    between atoms: _448  and  _451
REMARK  182  A    between atoms: _451  and  _452
REMARK  183  A    between atoms: _462  and  _464
REMARK  184  A    between atoms: _464  and  _465
REMARK  185  A    between atoms: _464  and  _467
REMARK  186  A    between atoms: _467  and  _468
REMARK  187  A    between atoms: _468  and  _469
REMARK  188  A    between atoms: _469  and  _470
REMARK  189  A    between atoms: _479  and  _481
REMARK  190  A    between atoms: _481  and  _482
REMARK  191  A    between atoms: _481  and  _484
REMARK  192  A    between atoms: _484  and  _485
REMARK  193  A    between atoms: _488  and  _490
REMARK  194  A    between atoms: _490  and  _491
REMARK  195  A    between atoms: _490  and  _493
REMARK  196  A    between atoms: _493  and  _494
REMARK  197  A    between atoms: _500  and  _502
REMARK  198  A    between atoms: _502  and  _503
REMARK  199  A    between atoms: _505  and  _507
REMARK  200  A    between atoms: _507  and  _508
REMARK  201  A    between atoms: _507  and  _510
REMARK  202  A    between atoms: _510  and  _511
REMARK  203  A    between atoms: _511  and  _512
REMARK  204  A    between atoms: _512  and  _513
REMARK  205  A    between atoms: _522  and  _524
REMARK  206  A    between atoms: _524  and  _525
REMARK  207  A    between atoms: _524  and  _527
REMARK  208  A    between atoms: _527  and  _528
REMARK  209  A    between atoms: _528  and  _529
REMARK  210  A    between atoms: _529  and  _530
REMARK  211  A    between atoms: _530  and  _531
REMARK  212  A    between atoms: _535  and  _537
REMARK  213  A    between atoms: _537  and  _538
REMARK  214  A    between atoms: _540  and  _542
REMARK  215  A    between atoms: _542  and  _543
REMARK  216  A    between atoms: _542  and  _545
REMARK  217  A    between atoms: _548  and  _550
REMARK  218  A    between atoms: _550  and  _551
REMARK  219  A    between atoms: _550  and  _553
REMARK  220  A    between atoms: _553  and  _554
REMARK  221  A    between atoms: _556  and  _558
REMARK  222  A    between atoms: _558  and  _559
REMARK  223  A    between atoms: _558  and  _561
REMARK  224  A    between atoms: _561  and  _562
REMARK  225  A    between atoms: _567  and  _569
REMARK  226  A    between atoms: _569  and  _570
REMARK  227  A    between atoms: _572  and  _574
REMARK  228  A    between atoms: _574  and  _575
REMARK  229  A    between atoms: _574  and  _577
REMARK  230  A    between atoms: _577  and  _578
REMARK  231  A    between atoms: _584  and  _586
REMARK  232  A    between atoms: _586  and  _587
REMARK  233  A    between atoms: _586  and  _589
REMARK  234  A    between atoms: _589  and  _590
REMARK  235  A    between atoms: _596  and  _598
REMARK  236  A    between atoms: _598  and  _599
REMARK  237  A    between atoms: _598  and  _601
REMARK  238  A    between atoms: _601  and  _602
REMARK  239  A    between atoms: _605  and  _607
REMARK  240  A    between atoms: _607  and  _608
REMARK  241  A    between atoms: _607  and  _610
REMARK  242  A    between atoms: _610  and  _611
REMARK  243  A    between atoms: _611  and  _612
REMARK  244  A    between atoms: _612  and  _613
REMARK  245  A    between atoms: _613  and  _614
REMARK  246  A    between atoms: _618  and  _620
REMARK  247  A    between atoms: _620  and  _621
REMARK  248  A    between atoms: _620  and  _623
REMARK  249  A    between atoms: _623  and  _624
REMARK  250  A    between atoms: _624  and  _625
REMARK  251  A    between atoms: _625  and  _626
REMARK                            x       y       z     vdW  Elec       q    Type
REMARK                         _______ _______ _______ _____ _____    ______ ____
ROOT
ATOM      1  O   HOH     1       3.550  21.900  -1.728  0.00  0.00    +0.000 OA
ENDROOT
TORSDOF 0
REMARK  Name = ../refined-set-2016/2am4/2am4_pocket.pdb
REMARK  251 active torsions:
REMARK  status: ('A' for Active; 'I' for Inactive)
REMARK    1  A    between atoms: _1  and  _3
REMARK    2  A    between atoms: _3  and  _4
REMARK    3  A    between atoms: _3  and  _6
REMARK    4  A    between atoms: _6  and  _7
REMARK    5  A    between atoms: _10  and  _12
REMARK    6  A    between atoms: _12  and  _13
REMARK    7  A    between atoms: _12  and  _15
REMARK    8  A    between atoms: _18  and  _20
REMARK    9  A    between atoms: _20  and  _21
REMARK   10  A    between atoms: _20  and  _23
REMARK   11  A    between atoms: _23  and  _24
REMARK   12  A    between atoms: _27  and  _29
REMARK   13  A    between atoms: _29  and  _30
REMARK   14  A    between atoms: _33  and  _35
REMARK   15  A    between atoms: _35  and  _36
REMARK   16  A    between atoms: _35  and  _38
REMARK   17  A    between atoms: _38  and  _39
REMARK   18  A    between atoms: _39  and  _109
REMARK   19  A    between atoms: _40  and  _42
REMARK   20  A    between atoms: _42  and  _43
REMARK   21  A    between atoms: _42  and  _45
REMARK   22  A    between atoms: _45  and  _46
REMARK   23  A    between atoms: _49  and  _51
REMARK   24  A    between atoms: _51  and  _52
REMARK   25  A    between atoms: _51  and  _54
REMARK   26  A    between atoms: _54  and  _55
REMARK   27  A    between atoms: _55  and  _56
REMARK   28  A    between atoms: _56  and  _57
REMARK   29  A    between atoms: _66  and  _68
REMARK   30  A    between atoms: _68  and  _69
REMARK   31  A    between atoms: _68  and  _71
REMARK   32  A    between atoms: _74  and  _76
REMARK   33  A    between atoms: _76  and  _77
REMARK   34  A    between atoms: _76  and  _79
REMARK   35  A    between atoms: _79  and  _80
REMARK   36  A    between atoms: _82  and  _84
REMARK   37  A    between atoms: _84  and  _85
REMARK   38  A    between atoms: _84  and  _87
REMARK   39  A    between atoms: _87  and  _88
REMARK   40  A    between atoms: _88  and  _89
REMARK   41  A    between atoms: _94  and  _96
REMARK   42  A    between atoms: _96  and  _97
REMARK   43  A    between atoms: _96  and  _99
REMARK   44  A    between atoms: _99  and  _100
REMARK   45  A    between atoms: _103  and  _105
REMARK   46  A    between atoms: _105  and  _106
REMARK   47  A    between atoms: _105  and  _108
REMARK   48  A    between atoms: _108  and  _109
REMARK   49  A    between atoms: _110  and  _112
REMARK   50  A    between atoms: _112  and  _113
REMARK   51  A    between atoms: _115  and  _117
REMARK   52  A    between atoms: _117  and  _118
REMARK   53  A    between atoms: _117  and  _120
REMARK   54  A    between atoms: _120  and  _121
REMARK   55  A    between atoms: _124  and  _126
REMARK   56  A    between atoms: _126  and  _127
REMARK   57  A    between atoms: _126  and  _129
REMARK   58  A    between atoms: _129  and  _130
REMARK   59  A    between atoms: _130  and  _131
REMARK   60  A    between atoms: _136  and  _138
REMARK   61  A    between atoms: _138  and  _139
REMARK   62  A    between atoms: _138  and  _141
REMARK   63  A    between atoms: _141  and  _142
REMARK   64  A    between atoms: _145  and  _147
REMARK   65  A    between atoms: _147  and  _148
REMARK   66  A    between atoms: _147  and  _150
REMARK   67  A    between atoms: _150  and  _151
REMARK   68  A    between atoms: _154  and  _156
REMARK   69  A    between atoms: _156  and  _157
REMARK   70  A    between atoms: _156  and  _159
REMARK   71  A    between atoms: _159  and  _160
REMARK   72  A    between atoms: _166  and  _168
REMARK   73  A    between atoms: _168  and  _169
REMARK   74  A    between atoms: _168  and  _171
REMARK   75  A    between atoms: _171  and  _172
REMARK   76  A    between atoms: _172  and  _173
REMARK   77  A    between atoms: _178  and  _180
REMARK   78  A    between atoms: _180  and  _181
REMARK   79  A    between atoms: _183  and  _185
REMARK   80  A    between atoms: _185  and  _186
REMARK   81  A    between atoms: _185  and  _188
REMARK   82  A    between atoms: _188  and  _189
REMARK   83  A    between atoms: _194  and  _195
REMARK   84  A    between atoms: _197  and  _199
REMARK   85  A    between atoms: _199  and  _200
REMARK   86  A    between atoms: _199  and  _202
REMARK   87  A    between atoms: _202  and  _203
REMARK   88  A    between atoms: _208  and  _209
REMARK   89  A    between atoms: _211  and  _213
REMARK   90  A    between atoms: _213  and  _214
REMARK   91  A    between atoms: _213  and  _216
REMARK   92  A    between atoms: _216  and  _217
REMARK   93  A    between atoms: _217  and  _218
REMARK   94  A    between atoms: _218  and  _219
REMARK   95  A    between atoms: _219  and  _220
REMARK   96  A    between atoms: _224  and  _226
REMARK   97  A    between atoms: _226  and  _227
REMARK   98  A    between atoms: _226  and  _229
REMARK   99  A    between atoms: _229  and  _230
REMARK  100  A    between atoms: _233  and  _235
REMARK  101  A    between atoms: _235  and  _236
REMARK  102  A    between atoms: _239  and  _241
REMARK  103  A    between atoms: _241  and  _242
REMARK  104  A    between atoms: _241  and  _244
REMARK  105  A    between atoms: _244  and  _245
REMARK  106  A    between atoms: _245  and  _246
REMARK  107  A    between atoms: _246  and  _247
REMARK  108  A    between atoms: _256  and  _258
REMARK  109  A    between atoms: _258  and  _259
REMARK  110  A    between atoms: _258  and  _261
REMARK  111  A    between atoms: _261  and  _262
REMARK  112  A    between atoms: _267  and  _269
REMARK  113  A    between atoms: _269  and  _270
REMARK  114  A    between atoms: _269  and  _272
REMARK  115  A    between atoms: _272  and  _273
REMARK  116  A    between atoms: _278  and  _279
REMARK  117  A    between atoms: _281  and  _283
REMARK  118  A    between atoms: _283  and  _284
REMARK  119  A    between atoms: _287  and  _289
REMARK  120  A    between atoms: _289  and  _290
REMARK  121  A    between atoms: _289  and  _292
REMARK  122  A    between atoms: _295  and  _297
REMARK  123  A    between atoms: _297  and  _298
REMARK  124  A    between atoms: _297  and  _300
REMARK  125  A    between atoms: _303  and  _305
REMARK  126  A    between atoms: _305  and  _306
REMARK  127  A    between atoms: _305  and  _308
REMARK  128  A    between atoms: _308  and  _309
REMARK  129  A    between atoms: _309  and  _310
REMARK  130  A    between atoms: _313  and  _315
REMARK  131  A    between atoms: _315  and  _316
REMARK  132  A    between atoms: _315  and  _318
REMARK  133  A    between atoms: _318  and  _319
REMARK  134  A    between atoms: _322  and  _324
REMARK  135  A    between atoms: _324  and  _325
REMARK  136  A    between atoms: _324  and  _327
REMARK  137  A    between atoms: _327  and  _328
REMARK  138  A    between atoms: _328  and  _330
REMARK  139  A    between atoms: _330  and  MN_635
REMARK  140  A    between atoms: _331  and  _333
REMARK  141  A    between atoms: _333  and  _334
REMARK  142  A    between atoms: _333  and  _336
REMARK  143  A    between atoms: _336  and  _337
REMARK  144  A    between atoms: _340  and  _342
REMARK  145  A    between atoms: _342  and  _343
REMARK  146  A    between atoms: _342  and  _345
REMARK  147  A    between atoms: _345  and  _346
REMARK  148  A    between atoms: _353  and  _354
REMARK  149  A    between atoms: _359  and  _361
REMARK  150  A    between atoms: _361  and  _362
REMARK  151  A    between atoms: _364  and  _366
REMARK  152  A    between atoms: _366  and  _367
REMARK  153  A    between atoms: _366  and  _369
REMARK  154  A    between atoms: _369  and  _370
REMARK  155  A    between atoms: _373  and  _375
REMARK  156  A    between atoms: _375  and  _376
REMARK  157  A    between atoms: _378  and  _380
REMARK  158  A    between atoms: _380  and  _381
REMARK  159  A    between atoms: _380  and  _383
REMARK  160  A    between atoms: _383  and  _384
REMARK  161  A    between atoms: _394  and  _396
REMARK  162  A    between atoms: _396  and  _397
REMARK  163  A    between atoms: _400  and  _402
REMARK  164  A    between atoms: _402  and  _403
REMARK  165  A    between atoms: _402  and  _405
REMARK  166  A    between atoms: _405  and  _406
REMARK  167  A    between atoms: _412  and  _414
REMARK  168  A    between atoms: _414  and  _415
REMARK  169  A    between atoms: _414  and  _417
REMARK  170  A    between atoms: _417  and  _418
REMARK  171  A    between atoms: _428  and  _430
REMARK  172  A    between atoms: _430  and  _431
REMARK  173  A    between atoms: _430  and  _433
REMARK  174  A    between atoms: _433  and  _434
REMARK  175  A    between atoms: _437  and  _439
REMARK  176  A    between atoms: _439  and  _440
REMARK  177  A    between atoms: _439  and  _442
REMARK  178  A    between atoms: _442  and  _443
REMARK  179  A    between atoms: _446  and  _448
REMARK  180  A    between atoms: _448  and  _449
REMARK  181  A    between atoms: _448  and  _451
REMARK  182  A    between atoms: _451  and  _452
REMARK  183  A    between atoms: _462  and  _464
REMARK  184  A    between atoms: _464  and  _465
REMARK  185  A    between atoms: _464  and  _467
REMARK  186  A    between atoms: _467  and  _468
REMARK  187  A    between atoms: _468  and  _469
REMARK  188  A    between atoms: _469  and  _470
REMARK  189  A    between atoms: _479  and  _481
REMARK  190  A    between atoms: _481  and  _482
REMARK  191  A    between atoms: _481  and  _484
REMARK  192  A    between atoms: _484  and  _485
REMARK  193  A    between atoms: _488  and  _490
REMARK  194  A    between atoms: _490  and  _491
REMARK  195  A    between atoms: _490  and  _493
REMARK  196  A    between atoms: _493  and  _494
REMARK  197  A    between atoms: _500  and  _502
REMARK  198  A    between atoms: _502  and  _503
REMARK  199  A    between atoms: _505  and  _507
REMARK  200  A    between atoms: _507  and  _508
REMARK  201  A    between atoms: _507  and  _510
REMARK  202  A    between atoms: _510  and  _511
REMARK  203  A    between atoms: _511  and  _512
REMARK  204  A    between atoms: _512  and  _513
REMARK  205  A    between atoms: _522  and  _524
REMARK  206  A    between atoms: _524  and  _525
REMARK  207  A    between atoms: _524  and  _527
REMARK  208  A    between atoms: _527  and  _528
REMARK  209  A    between atoms: _528  and  _529
REMARK  210  A    between atoms: _529  and  _530
REMARK  211  A    between atoms: _530  and  _531
REMARK  212  A    between atoms: _535  and  _537
REMARK  213  A    between atoms: _537  and  _538
REMARK  214  A    between atoms: _540  and  _542
REMARK  215  A    between atoms: _542  and  _543
REMARK  216  A    between atoms: _542  and  _545
REMARK  217  A    between atoms: _548  and  _550
REMARK  218  A    between atoms: _550  and  _551
REMARK  219  A    between atoms: _550  and  _553
REMARK  220  A    between atoms: _553  and  _554
REMARK  221  A    between atoms: _556  and  _558
REMARK  222  A    between atoms: _558  and  _559
REMARK  223  A    between atoms: _558  and  _561
REMARK  224  A    between atoms: _561  and  _562
REMARK  225  A    between atoms: _567  and  _569
REMARK  226  A    between atoms: _569  and  _570
REMARK  227  A    between atoms: _572  and  _574
REMARK  228  A    between atoms: _574  and  _575
REMARK  229  A    between atoms: _574  and  _577
REMARK  230  A    between atoms: _577  and  _578
REMARK  231  A    between atoms: _584  and  _586
REMARK  232  A    between atoms: _586  and  _587
REMARK  233  A    between atoms: _586  and  _589
REMARK  234  A    between atoms: _589  and  _590
REMARK  235  A    between atoms: _596  and  _598
REMARK  236  A    between atoms: _598  and  _599
REMARK  237  A    between atoms: _598  and  _601
REMARK  238  A    between atoms: _601  and  _602
REMARK  239  A    between atoms: _605  and  _607
REMARK  240  A    between atoms: _607  and  _608
REMARK  241  A    between atoms: _607  and  _610
REMARK  242  A    between atoms: _610  and  _611
REMARK  243  A    between atoms: _611  and  _612
REMARK  244  A    between atoms: _612  and  _613
REMARK  245  A    between atoms: _613  and  _614
REMARK  246  A    between atoms: _618  and  _620
REMARK  247  A    between atoms: _620  and  _621
REMARK  248  A    between atoms: _620  and  _623
REMARK  249  A    between atoms: _623  and  _624
REMARK  250  A    between atoms: _624  and  _625
REMARK  251  A    between atoms: _625  and  _626
REMARK                            x       y       z     vdW  Elec       q    Type
REMARK                         _______ _______ _______ _____ _____    ______ ____
ROOT
ATOM      1  O   HOH     1      -6.068  23.603   4.843  0.00  0.00    +0.000 OA
ENDROOT
TORSDOF 0
REMARK  Name = ../refined-set-2016/2am4/2am4_pocket.pdb
REMARK  251 active torsions:
REMARK  status: ('A' for Active; 'I' for Inactive)
REMARK    1  A    between atoms: _1  and  _3
REMARK    2  A    between atoms: _3  and  _4
REMARK    3  A    between atoms: _3  and  _6
REMARK    4  A    between atoms: _6  and  _7
REMARK    5  A    between atoms: _10  and  _12
REMARK    6  A    between atoms: _12  and  _13
REMARK    7  A    between atoms: _12  and  _15
REMARK    8  A    between atoms: _18  and  _20
REMARK    9  A    between atoms: _20  and  _21
REMARK   10  A    between atoms: _20  and  _23
REMARK   11  A    between atoms: _23  and  _24
REMARK   12  A    between atoms: _27  and  _29
REMARK   13  A    between atoms: _29  and  _30
REMARK   14  A    between atoms: _33  and  _35
REMARK   15  A    between atoms: _35  and  _36
REMARK   16  A    between atoms: _35  and  _38
REMARK   17  A    between atoms: _38  and  _39
REMARK   18  A    between atoms: _39  and  _109
REMARK   19  A    between atoms: _40  and  _42
REMARK   20  A    between atoms: _42  and  _43
REMARK   21  A    between atoms: _42  and  _45
REMARK   22  A    between atoms: _45  and  _46
REMARK   23  A    between atoms: _49  and  _51
REMARK   24  A    between atoms: _51  and  _52
REMARK   25  A    between atoms: _51  and  _54
REMARK   26  A    between atoms: _54  and  _55
REMARK   27  A    between atoms: _55  and  _56
REMARK   28  A    between atoms: _56  and  _57
REMARK   29  A    between atoms: _66  and  _68
REMARK   30  A    between atoms: _68  and  _69
REMARK   31  A    between atoms: _68  and  _71
REMARK   32  A    between atoms: _74  and  _76
REMARK   33  A    between atoms: _76  and  _77
REMARK   34  A    between atoms: _76  and  _79
REMARK   35  A    between atoms: _79  and  _80
REMARK   36  A    between atoms: _82  and  _84
REMARK   37  A    between atoms: _84  and  _85
REMARK   38  A    between atoms: _84  and  _87
REMARK   39  A    between atoms: _87  and  _88
REMARK   40  A    between atoms: _88  and  _89
REMARK   41  A    between atoms: _94  and  _96
REMARK   42  A    between atoms: _96  and  _97
REMARK   43  A    between atoms: _96  and  _99
REMARK   44  A    between atoms: _99  and  _100
REMARK   45  A    between atoms: _103  and  _105
REMARK   46  A    between atoms: _105  and  _106
REMARK   47  A    between atoms: _105  and  _108
REMARK   48  A    between atoms: _108  and  _109
REMARK   49  A    between atoms: _110  and  _112
REMARK   50  A    between atoms: _112  and  _113
REMARK   51  A    between atoms: _115  and  _117
REMARK   52  A    between atoms: _117  and  _118
REMARK   53  A    between atoms: _117  and  _120
REMARK   54  A    between atoms: _120  and  _121
REMARK   55  A    between atoms: _124  and  _126
REMARK   56  A    between atoms: _126  and  _127
REMARK   57  A    between atoms: _126  and  _129
REMARK   58  A    between atoms: _129  and  _130
REMARK   59  A    between atoms: _130  and  _131
REMARK   60  A    between atoms: _136  and  _138
REMARK   61  A    between atoms: _138  and  _139
REMARK   62  A    between atoms: _138  and  _141
REMARK   63  A    between atoms: _141  and  _142
REMARK   64  A    between atoms: _145  and  _147
REMARK   65  A    between atoms: _147  and  _148
REMARK   66  A    between atoms: _147  and  _150
REMARK   67  A    between atoms: _150  and  _151
REMARK   68  A    between atoms: _154  and  _156
REMARK   69  A    between atoms: _156  and  _157
REMARK   70  A    between atoms: _156  and  _159
REMARK   71  A    between atoms: _159  and  _160
REMARK   72  A    between atoms: _166  and  _168
REMARK   73  A    between atoms: _168  and  _169
REMARK   74  A    between atoms: _168  and  _171
REMARK   75  A    between atoms: _171  and  _172
REMARK   76  A    between atoms: _172  and  _173
REMARK   77  A    between atoms: _178  and  _180
REMARK   78  A    between atoms: _180  and  _181
REMARK   79  A    between atoms: _183  and  _185
REMARK   80  A    between atoms: _185  and  _186
REMARK   81  A    between atoms: _185  and  _188
REMARK   82  A    between atoms: _188  and  _189
REMARK   83  A    between atoms: _194  and  _195
REMARK   84  A    between atoms: _197  and  _199
REMARK   85  A    between atoms: _199  and  _200
REMARK   86  A    between atoms: _199  and  _202
REMARK   87  A    between atoms: _202  and  _203
REMARK   88  A    between atoms: _208  and  _209
REMARK   89  A    between atoms: _211  and  _213
REMARK   90  A    between atoms: _213  and  _214
REMARK   91  A    between atoms: _213  and  _216
REMARK   92  A    between atoms: _216  and  _217
REMARK   93  A    between atoms: _217  and  _218
REMARK   94  A    between atoms: _218  and  _219
REMARK   95  A    between atoms: _219  and  _220
REMARK   96  A    between atoms: _224  and  _226
REMARK   97  A    between atoms: _226  and  _227
REMARK   98  A    between atoms: _226  and  _229
REMARK   99  A    between atoms: _229  and  _230
REMARK  100  A    between atoms: _233  and  _235
REMARK  101  A    between atoms: _235  and  _236
REMARK  102  A    between atoms: _239  and  _241
REMARK  103  A    between atoms: _241  and  _242
REMARK  104  A    between atoms: _241  and  _244
REMARK  105  A    between atoms: _244  and  _245
REMARK  106  A    between atoms: _245  and  _246
REMARK  107  A    between atoms: _246  and  _247
REMARK  108  A    between atoms: _256  and  _258
REMARK  109  A    between atoms: _258  and  _259
REMARK  110  A    between atoms: _258  and  _261
REMARK  111  A    between atoms: _261  and  _262
REMARK  112  A    between atoms: _267  and  _269
REMARK  113  A    between atoms: _269  and  _270
REMARK  114  A    between atoms: _269  and  _272
REMARK  115  A    between atoms: _272  and  _273
REMARK  116  A    between atoms: _278  and  _279
REMARK  117  A    between atoms: _281  and  _283
REMARK  118  A    between atoms: _283  and  _284
REMARK  119  A    between atoms: _287  and  _289
REMARK  120  A    between atoms: _289  and  _290
REMARK  121  A    between atoms: _289  and  _292
REMARK  122  A    between atoms: _295  and  _297
REMARK  123  A    between atoms: _297  and  _298
REMARK  124  A    between atoms: _297  and  _300
REMARK  125  A    between atoms: _303  and  _305
REMARK  126  A    between atoms: _305  and  _306
REMARK  127  A    between atoms: _305  and  _308
REMARK  128  A    between atoms: _308  and  _309
REMARK  129  A    between atoms: _309  and  _310
REMARK  130  A    between atoms: _313  and  _315
REMARK  131  A    between atoms: _315  and  _316
REMARK  132  A    between atoms: _315  and  _318
REMARK  133  A    between atoms: _318  and  _319
REMARK  134  A    between atoms: _322  and  _324
REMARK  135  A    between atoms: _324  and  _325
REMARK  136  A    between atoms: _324  and  _327
REMARK  137  A    between atoms: _327  and  _328
REMARK  138  A    between atoms: _328  and  _330
REMARK  139  A    between atoms: _330  and  MN_635
REMARK  140  A    between atoms: _331  and  _333
REMARK  141  A    between atoms: _333  and  _334
REMARK  142  A    between atoms: _333  and  _336
REMARK  143  A    between atoms: _336  and  _337
REMARK  144  A    between atoms: _340  and  _342
REMARK  145  A    between atoms: _342  and  _343
REMARK  146  A    between atoms: _342  and  _345
REMARK  147  A    between atoms: _345  and  _346
REMARK  148  A    between atoms: _353  and  _354
REMARK  149  A    between atoms: _359  and  _361
REMARK  150  A    between atoms: _361  and  _362
REMARK  151  A    between atoms: _364  and  _366
REMARK  152  A    between atoms: _366  and  _367
REMARK  153  A    between atoms: _366  and  _369
REMARK  154  A    between atoms: _369  and  _370
REMARK  155  A    between atoms: _373  and  _375
REMARK  156  A    between atoms: _375  and  _376
REMARK  157  A    between atoms: _378  and  _380
REMARK  158  A    between atoms: _380  and  _381
REMARK  159  A    between atoms: _380  and  _383
REMARK  160  A    between atoms: _383  and  _384
REMARK  161  A    between atoms: _394  and  _396
REMARK  162  A    between atoms: _396  and  _397
REMARK  163  A    between atoms: _400  and  _402
REMARK  164  A    between atoms: _402  and  _403
REMARK  165  A    between atoms: _402  and  _405
REMARK  166  A    between atoms: _405  and  _406
REMARK  167  A    between atoms: _412  and  _414
REMARK  168  A    between atoms: _414  and  _415
REMARK  169  A    between atoms: _414  and  _417
REMARK  170  A    between atoms: _417  and  _418
REMARK  171  A    between atoms: _428  and  _430
REMARK  172  A    between atoms: _430  and  _431
REMARK  173  A    between atoms: _430  and  _433
REMARK  174  A    between atoms: _433  and  _434
REMARK  175  A    between atoms: _437  and  _439
REMARK  176  A    between atoms: _439  and  _440
REMARK  177  A    between atoms: _439  and  _442
REMARK  178  A    between atoms: _442  and  _443
REMARK  179  A    between atoms: _446  and  _448
REMARK  180  A    between atoms: _448  and  _449
REMARK  181  A    between atoms: _448  and  _451
REMARK  182  A    between atoms: _451  and  _452
REMARK  183  A    between atoms: _462  and  _464
REMARK  184  A    between atoms: _464  and  _465
REMARK  185  A    between atoms: _464  and  _467
REMARK  186  A    between atoms: _467  and  _468
REMARK  187  A    between atoms: _468  and  _469
REMARK  188  A    between atoms: _469  and  _470
REMARK  189  A    between atoms: _479  and  _481
REMARK  190  A    between atoms: _481  and  _482
REMARK  191  A    between atoms: _481  and  _484
REMARK  192  A    between atoms: _484  and  _485
REMARK  193  A    between atoms: _488  and  _490
REMARK  194  A    between atoms: _490  and  _491
REMARK  195  A    between atoms: _490  and  _493
REMARK  196  A    between atoms: _493  and  _494
REMARK  197  A    between atoms: _500  and  _502
REMARK  198  A    between atoms: _502  and  _503
REMARK  199  A    between atoms: _505  and  _507
REMARK  200  A    between atoms: _507  and  _508
REMARK  201  A    between atoms: _507  and  _510
REMARK  202  A    between atoms: _510  and  _511
REMARK  203  A    between atoms: _511  and  _512
REMARK  204  A    between atoms: _512  and  _513
REMARK  205  A    between atoms: _522  and  _524
REMARK  206  A    between atoms: _524  and  _525
REMARK  207  A    between atoms: _524  and  _527
REMARK  208  A    between atoms: _527  and  _528
REMARK  209  A    between atoms: _528  and  _529
REMARK  210  A    between atoms: _529  and  _530
REMARK  211  A    between atoms: _530  and  _531
REMARK  212  A    between atoms: _535  and  _537
REMARK  213  A    between atoms: _537  and  _538
REMARK  214  A    between atoms: _540  and  _542
REMARK  215  A    between atoms: _542  and  _543
REMARK  216  A    between atoms: _542  and  _545
REMARK  217  A    between atoms: _548  and  _550
REMARK  218  A    between atoms: _550  and  _551
REMARK  219  A    between atoms: _550  and  _553
REMARK  220  A    between atoms: _553  and  _554
REMARK  221  A    between atoms: _556  and  _558
REMARK  222  A    between atoms: _558  and  _559
REMARK  223  A    between atoms: _558  and  _561
REMARK  224  A    between atoms: _561  and  _562
REMARK  225  A    between atoms: _567  and  _569
REMARK  226  A    between atoms: _569  and  _570
REMARK  227  A    between atoms: _572  and  _574
REMARK  228  A    between atoms: _574  and  _575
REMARK  229  A    between atoms: _574  and  _577
REMARK  230  A    between atoms: _577  and  _578
REMARK  231  A    between atoms: _584  and  _586
REMARK  232  A    between atoms: _586  and  _587
REMARK  233  A    between atoms: _586  and  _589
REMARK  234  A    between atoms: _589  and  _590
REMARK  235  A    between atoms: _596  and  _598
REMARK  236  A    between atoms: _598  and  _599
REMARK  237  A    between atoms: _598  and  _601
REMARK  238  A    between atoms: _601  and  _602
REMARK  239  A    between atoms: _605  and  _607
REMARK  240  A    between atoms: _607  and  _608
REMARK  241  A    between atoms: _607  and  _610
REMARK  242  A    between atoms: _610  and  _611
REMARK  243  A    between atoms: _611  and  _612
REMARK  244  A    between atoms: _612  and  _613
REMARK  245  A    between atoms: _613  and  _614
REMARK  246  A    between atoms: _618  and  _620
REMARK  247  A    between atoms: _620  and  _621
REMARK  248  A    between atoms: _620  and  _623
REMARK  249  A    between atoms: _623  and  _624
REMARK  250  A    between atoms: _624  and  _625
REMARK  251  A    between atoms: _625  and  _626
REMARK                            x       y       z     vdW  Elec       q    Type
REMARK                         _______ _______ _______ _____ _____    ______ ____
ROOT
ATOM      1  O   HOH     1       1.817  13.857   2.763  0.00  0.00    +0.000 OA
ENDROOT
TORSDOF 0
REMARK  Name = ../refined-set-2016/2am4/2am4_pocket.pdb
REMARK  251 active torsions:
REMARK  status: ('A' for Active; 'I' for Inactive)
REMARK    1  A    between atoms: _1  and  _3
REMARK    2  A    between atoms: _3  and  _4
REMARK    3  A    between atoms: _3  and  _6
REMARK    4  A    between atoms: _6  and  _7
REMARK    5  A    between atoms: _10  and  _12
REMARK    6  A    between atoms: _12  and  _13
REMARK    7  A    between atoms: _12  and  _15
REMARK    8  A    between atoms: _18  and  _20
REMARK    9  A    between atoms: _20  and  _21
REMARK   10  A    between atoms: _20  and  _23
REMARK   11  A    between atoms: _23  and  _24
REMARK   12  A    between atoms: _27  and  _29
REMARK   13  A    between atoms: _29  and  _30
REMARK   14  A    between atoms: _33  and  _35
REMARK   15  A    between atoms: _35  and  _36
REMARK   16  A    between atoms: _35  and  _38
REMARK   17  A    between atoms: _38  and  _39
REMARK   18  A    between atoms: _39  and  _109
REMARK   19  A    between atoms: _40  and  _42
REMARK   20  A    between atoms: _42  and  _43
REMARK   21  A    between atoms: _42  and  _45
REMARK   22  A    between atoms: _45  and  _46
REMARK   23  A    between atoms: _49  and  _51
REMARK   24  A    between atoms: _51  and  _52
REMARK   25  A    between atoms: _51  and  _54
REMARK   26  A    between atoms: _54  and  _55
REMARK   27  A    between atoms: _55  and  _56
REMARK   28  A    between atoms: _56  and  _57
REMARK   29  A    between atoms: _66  and  _68
REMARK   30  A    between atoms: _68  and  _69
REMARK   31  A    between atoms: _68  and  _71
REMARK   32  A    between atoms: _74  and  _76
REMARK   33  A    between atoms: _76  and  _77
REMARK   34  A    between atoms: _76  and  _79
REMARK   35  A    between atoms: _79  and  _80
REMARK   36  A    between atoms: _82  and  _84
REMARK   37  A    between atoms: _84  and  _85
REMARK   38  A    between atoms: _84  and  _87
REMARK   39  A    between atoms: _87  and  _88
REMARK   40  A    between atoms: _88  and  _89
REMARK   41  A    between atoms: _94  and  _96
REMARK   42  A    between atoms: _96  and  _97
REMARK   43  A    between atoms: _96  and  _99
REMARK   44  A    between atoms: _99  and  _100
REMARK   45  A    between atoms: _103  and  _105
REMARK   46  A    between atoms: _105  and  _106
REMARK   47  A    between atoms: _105  and  _108
REMARK   48  A    between atoms: _108  and  _109
REMARK   49  A    between atoms: _110  and  _112
REMARK   50  A    between atoms: _112  and  _113
REMARK   51  A    between atoms: _115  and  _117
REMARK   52  A    between atoms: _117  and  _118
REMARK   53  A    between atoms: _117  and  _120
REMARK   54  A    between atoms: _120  and  _121
REMARK   55  A    between atoms: _124  and  _126
REMARK   56  A    between atoms: _126  and  _127
REMARK   57  A    between atoms: _126  and  _129
REMARK   58  A    between atoms: _129  and  _130
REMARK   59  A    between atoms: _130  and  _131
REMARK   60  A    between atoms: _136  and  _138
REMARK   61  A    between atoms: _138  and  _139
REMARK   62  A    between atoms: _138  and  _141
REMARK   63  A    between atoms: _141  and  _142
REMARK   64  A    between atoms: _145  and  _147
REMARK   65  A    between atoms: _147  and  _148
REMARK   66  A    between atoms: _147  and  _150
REMARK   67  A    between atoms: _150  and  _151
REMARK   68  A    between atoms: _154  and  _156
REMARK   69  A    between atoms: _156  and  _157
REMARK   70  A    between atoms: _156  and  _159
REMARK   71  A    between atoms: _159  and  _160
REMARK   72  A    between atoms: _166  and  _168
REMARK   73  A    between atoms: _168  and  _169
REMARK   74  A    between atoms: _168  and  _171
REMARK   75  A    between atoms: _171  and  _172
REMARK   76  A    between atoms: _172  and  _173
REMARK   77  A    between atoms: _178  and  _180
REMARK   78  A    between atoms: _180  and  _181
REMARK   79  A    between atoms: _183  and  _185
REMARK   80  A    between atoms: _185  and  _186
REMARK   81  A    between atoms: _185  and  _188
REMARK   82  A    between atoms: _188  and  _189
REMARK   83  A    between atoms: _194  and  _195
REMARK   84  A    between atoms: _197  and  _199
REMARK   85  A    between atoms: _199  and  _200
REMARK   86  A    between atoms: _199  and  _202
REMARK   87  A    between atoms: _202  and  _203
REMARK   88  A    between atoms: _208  and  _209
REMARK   89  A    between atoms: _211  and  _213
REMARK   90  A    between atoms: _213  and  _214
REMARK   91  A    between atoms: _213  and  _216
REMARK   92  A    between atoms: _216  and  _217
REMARK   93  A    between atoms: _217  and  _218
REMARK   94  A    between atoms: _218  and  _219
REMARK   95  A    between atoms: _219  and  _220
REMARK   96  A    between atoms: _224  and  _226
REMARK   97  A    between atoms: _226  and  _227
REMARK   98  A    between atoms: _226  and  _229
REMARK   99  A    between atoms: _229  and  _230
REMARK  100  A    between atoms: _233  and  _235
REMARK  101  A    between atoms: _235  and  _236
REMARK  102  A    between atoms: _239  and  _241
REMARK  103  A    between atoms: _241  and  _242
REMARK  104  A    between atoms: _241  and  _244
REMARK  105  A    between atoms: _244  and  _245
REMARK  106  A    between atoms: _245  and  _246
REMARK  107  A    between atoms: _246  and  _247
REMARK  108  A    between atoms: _256  and  _258
REMARK  109  A    between atoms: _258  and  _259
REMARK  110  A    between atoms: _258  and  _261
REMARK  111  A    between atoms: _261  and  _262
REMARK  112  A    between atoms: _267  and  _269
REMARK  113  A    between atoms: _269  and  _270
REMARK  114  A    between atoms: _269  and  _272
REMARK  115  A    between atoms: _272  and  _273
REMARK  116  A    between atoms: _278  and  _279
REMARK  117  A    between atoms: _281  and  _283
REMARK  118  A    between atoms: _283  and  _284
REMARK  119  A    between atoms: _287  and  _289
REMARK  120  A    between atoms: _289  and  _290
REMARK  121  A    between atoms: _289  and  _292
REMARK  122  A    between atoms: _295  and  _297
REMARK  123  A    between atoms: _297  and  _298
REMARK  124  A    between atoms: _297  and  _300
REMARK  125  A    between atoms: _303  and  _305
REMARK  126  A    between atoms: _305  and  _306
REMARK  127  A    between atoms: _305  and  _308
REMARK  128  A    between atoms: _308  and  _309
REMARK  129  A    between atoms: _309  and  _310
REMARK  130  A    between atoms: _313  and  _315
REMARK  131  A    between atoms: _315  and  _316
REMARK  132  A    between atoms: _315  and  _318
REMARK  133  A    between atoms: _318  and  _319
REMARK  134  A    between atoms: _322  and  _324
REMARK  135  A    between atoms: _324  and  _325
REMARK  136  A    between atoms: _324  and  _327
REMARK  137  A    between atoms: _327  and  _328
REMARK  138  A    between atoms: _328  and  _330
REMARK  139  A    between atoms: _330  and  MN_635
REMARK  140  A    between atoms: _331  and  _333
REMARK  141  A    between atoms: _333  and  _334
REMARK  142  A    between atoms: _333  and  _336
REMARK  143  A    between atoms: _336  and  _337
REMARK  144  A    between atoms: _340  and  _342
REMARK  145  A    between atoms: _342  and  _343
REMARK  146  A    between atoms: _342  and  _345
REMARK  147  A    between atoms: _345  and  _346
REMARK  148  A    between atoms: _353  and  _354
REMARK  149  A    between atoms: _359  and  _361
REMARK  150  A    between atoms: _361  and  _362
REMARK  151  A    between atoms: _364  and  _366
REMARK  152  A    between atoms: _366  and  _367
REMARK  153  A    between atoms: _366  and  _369
REMARK  154  A    between atoms: _369  and  _370
REMARK  155  A    between atoms: _373  and  _375
REMARK  156  A    between atoms: _375  and  _376
REMARK  157  A    between atoms: _378  and  _380
REMARK  158  A    between atoms: _380  and  _381
REMARK  159  A    between atoms: _380  and  _383
REMARK  160  A    between atoms: _383  and  _384
REMARK  161  A    between atoms: _394  and  _396
REMARK  162  A    between atoms: _396  and  _397
REMARK  163  A    between atoms: _400  and  _402
REMARK  164  A    between atoms: _402  and  _403
REMARK  165  A    between atoms: _402  and  _405
REMARK  166  A    between atoms: _405  and  _406
REMARK  167  A    between atoms: _412  and  _414
REMARK  168  A    between atoms: _414  and  _415
REMARK  169  A    between atoms: _414  and  _417
REMARK  170  A    between atoms: _417  and  _418
REMARK  171  A    between atoms: _428  and  _430
REMARK  172  A    between atoms: _430  and  _431
REMARK  173  A    between atoms: _430  and  _433
REMARK  174  A    between atoms: _433  and  _434
REMARK  175  A    between atoms: _437  and  _439
REMARK  176  A    between atoms: _439  and  _440
REMARK  177  A    between atoms: _439  and  _442
REMARK  178  A    between atoms: _442  and  _443
REMARK  179  A    between atoms: _446  and  _448
REMARK  180  A    between atoms: _448  and  _449
REMARK  181  A    between atoms: _448  and  _451
REMARK  182  A    between atoms: _451  and  _452
REMARK  183  A    between atoms: _462  and  _464
REMARK  184  A    between atoms: _464  and  _465
REMARK  185  A    between atoms: _464  and  _467
REMARK  186  A    between atoms: _467  and  _468
REMARK  187  A    between atoms: _468  and  _469
REMARK  188  A    between atoms: _469  and  _470
REMARK  189  A    between atoms: _479  and  _481
REMARK  190  A    between atoms: _481  and  _482
REMARK  191  A    between atoms: _481  and  _484
REMARK  192  A    between atoms: _484  and  _485
REMARK  193  A    between atoms: _488  and  _490
REMARK  194  A    between atoms: _490  and  _491
REMARK  195  A    between atoms: _490  and  _493
REMARK  196  A    between atoms: _493  and  _494
REMARK  197  A    between atoms: _500  and  _502
REMARK  198  A    between atoms: _502  and  _503
REMARK  199  A    between atoms: _505  and  _507
REMARK  200  A    between atoms: _507  and  _508
REMARK  201  A    between atoms: _507  and  _510
REMARK  202  A    between atoms: _510  and  _511
REMARK  203  A    between atoms: _511  and  _512
REMARK  204  A    between atoms: _512  and  _513
REMARK  205  A    between atoms: _522  and  _524
REMARK  206  A    between atoms: _524  and  _525
REMARK  207  A    between atoms: _524  and  _527
REMARK  208  A    between atoms: _527  and  _528
REMARK  209  A    between atoms: _528  and  _529
REMARK  210  A    between atoms: _529  and  _530
REMARK  211  A    between atoms: _530  and  _531
REMARK  212  A    between atoms: _535  and  _537
REMARK  213  A    between atoms: _537  and  _538
REMARK  214  A    between atoms: _540  and  _542
REMARK  215  A    between atoms: _542  and  _543
REMARK  216  A    between atoms: _542  and  _545
REMARK  217  A    between atoms: _548  and  _550
REMARK  218  A    between atoms: _550  and  _551
REMARK  219  A    between atoms: _550  and  _553
REMARK  220  A    between atoms: _553  and  _554
REMARK  221  A    between atoms: _556  and  _558
REMARK  222  A    between atoms: _558  and  _559
REMARK  223  A    between atoms: _558  and  _561
REMARK  224  A    between atoms: _561  and  _562
REMARK  225  A    between atoms: _567  and  _569
REMARK  226  A    between atoms: _569  and  _570
REMARK  227  A    between atoms: _572  and  _574
REMARK  228  A    between atoms: _574  and  _575
REMARK  229  A    between atoms: _574  and  _577
REMARK  230  A    between atoms: _577  and  _578
REMARK  231  A    between atoms: _584  and  _586
REMARK  232  A    between atoms: _586  and  _587
REMARK  233  A    between atoms: _586  and  _589
REMARK  234  A    between atoms: _589  and  _590
REMARK  235  A    between atoms: _596  and  _598
REMARK  236  A    between atoms: _598  and  _599
REMARK  237  A    between atoms: _598  and  _601
REMARK  238  A    between atoms: _601  and  _602
REMARK  239  A    between atoms: _605  and  _607
REMARK  240  A    between atoms: _607  and  _608
REMARK  241  A    between atoms: _607  and  _610
REMARK  242  A    between atoms: _610  and  _611
REMARK  243  A    between atoms: _611  and  _612
REMARK  244  A    between atoms: _612  and  _613
REMARK  245  A    between atoms: _613  and  _614
REMARK  246  A    between atoms: _618  and  _620
REMARK  247  A    between atoms: _620  and  _621
REMARK  248  A    between atoms: _620  and  _623
REMARK  249  A    between atoms: _623  and  _624
REMARK  250  A    between atoms: _624  and  _625
REMARK  251  A    between atoms: _625  and  _626
REMARK                            x       y       z     vdW  Elec       q    Type
REMARK                         _______ _______ _______ _____ _____    ______ ____
ROOT
ATOM      1  O   HOH     1      -0.765  19.204  13.460  0.00  0.00    +0.000 OA
ENDROOT
TORSDOF 0
REMARK  Name = ../refined-set-2016/2am4/2am4_pocket.pdb
REMARK  251 active torsions:
REMARK  status: ('A' for Active; 'I' for Inactive)
REMARK    1  A    between atoms: _1  and  _3
REMARK    2  A    between atoms: _3  and  _4
REMARK    3  A    between atoms: _3  and  _6
REMARK    4  A    between atoms: _6  and  _7
REMARK    5  A    between atoms: _10  and  _12
REMARK    6  A    between atoms: _12  and  _13
REMARK    7  A    between atoms: _12  and  _15
REMARK    8  A    between atoms: _18  and  _20
REMARK    9  A    between atoms: _20  and  _21
REMARK   10  A    between atoms: _20  and  _23
REMARK   11  A    between atoms: _23  and  _24
REMARK   12  A    between atoms: _27  and  _29
REMARK   13  A    between atoms: _29  and  _30
REMARK   14  A    between atoms: _33  and  _35
REMARK   15  A    between atoms: _35  and  _36
REMARK   16  A    between atoms: _35  and  _38
REMARK   17  A    between atoms: _38  and  _39
REMARK   18  A    between atoms: _39  and  _109
REMARK   19  A    between atoms: _40  and  _42
REMARK   20  A    between atoms: _42  and  _43
REMARK   21  A    between atoms: _42  and  _45
REMARK   22  A    between atoms: _45  and  _46
REMARK   23  A    between atoms: _49  and  _51
REMARK   24  A    between atoms: _51  and  _52
REMARK   25  A    between atoms: _51  and  _54
REMARK   26  A    between atoms: _54  and  _55
REMARK   27  A    between atoms: _55  and  _56
REMARK   28  A    between atoms: _56  and  _57
REMARK   29  A    between atoms: _66  and  _68
REMARK   30  A    between atoms: _68  and  _69
REMARK   31  A    between atoms: _68  and  _71
REMARK   32  A    between atoms: _74  and  _76
REMARK   33  A    between atoms: _76  and  _77
REMARK   34  A    between atoms: _76  and  _79
REMARK   35  A    between atoms: _79  and  _80
REMARK   36  A    between atoms: _82  and  _84
REMARK   37  A    between atoms: _84  and  _85
REMARK   38  A    between atoms: _84  and  _87
REMARK   39  A    between atoms: _87  and  _88
REMARK   40  A    between atoms: _88  and  _89
REMARK   41  A    between atoms: _94  and  _96
REMARK   42  A    between atoms: _96  and  _97
REMARK   43  A    between atoms: _96  and  _99
REMARK   44  A    between atoms: _99  and  _100
REMARK   45  A    between atoms: _103  and  _105
REMARK   46  A    between atoms: _105  and  _106
REMARK   47  A    between atoms: _105  and  _108
REMARK   48  A    between atoms: _108  and  _109
REMARK   49  A    between atoms: _110  and  _112
REMARK   50  A    between atoms: _112  and  _113
REMARK   51  A    between atoms: _115  and  _117
REMARK   52  A    between atoms: _117  and  _118
REMARK   53  A    between atoms: _117  and  _120
REMARK   54  A    between atoms: _120  and  _121
REMARK   55  A    between atoms: _124  and  _126
REMARK   56  A    between atoms: _126  and  _127
REMARK   57  A    between atoms: _126  and  _129
REMARK   58  A    between atoms: _129  and  _130
REMARK   59  A    between atoms: _130  and  _131
REMARK   60  A    between atoms: _136  and  _138
REMARK   61  A    between atoms: _138  and  _139
REMARK   62  A    between atoms: _138  and  _141
REMARK   63  A    between atoms: _141  and  _142
REMARK   64  A    between atoms: _145  and  _147
REMARK   65  A    between atoms: _147  and  _148
REMARK   66  A    between atoms: _147  and  _150
REMARK   67  A    between atoms: _150  and  _151
REMARK   68  A    between atoms: _154  and  _156
REMARK   69  A    between atoms: _156  and  _157
REMARK   70  A    between atoms: _156  and  _159
REMARK   71  A    between atoms: _159  and  _160
REMARK   72  A    between atoms: _166  and  _168
REMARK   73  A    between atoms: _168  and  _169
REMARK   74  A    between atoms: _168  and  _171
REMARK   75  A    between atoms: _171  and  _172
REMARK   76  A    between atoms: _172  and  _173
REMARK   77  A    between atoms: _178  and  _180
REMARK   78  A    between atoms: _180  and  _181
REMARK   79  A    between atoms: _183  and  _185
REMARK   80  A    between atoms: _185  and  _186
REMARK   81  A    between atoms: _185  and  _188
REMARK   82  A    between atoms: _188  and  _189
REMARK   83  A    between atoms: _194  and  _195
REMARK   84  A    between atoms: _197  and  _199
REMARK   85  A    between atoms: _199  and  _200
REMARK   86  A    between atoms: _199  and  _202
REMARK   87  A    between atoms: _202  and  _203
REMARK   88  A    between atoms: _208  and  _209
REMARK   89  A    between atoms: _211  and  _213
REMARK   90  A    between atoms: _213  and  _214
REMARK   91  A    between atoms: _213  and  _216
REMARK   92  A    between atoms: _216  and  _217
REMARK   93  A    between atoms: _217  and  _218
REMARK   94  A    between atoms: _218  and  _219
REMARK   95  A    between atoms: _219  and  _220
REMARK   96  A    between atoms: _224  and  _226
REMARK   97  A    between atoms: _226  and  _227
REMARK   98  A    between atoms: _226  and  _229
REMARK   99  A    between atoms: _229  and  _230
REMARK  100  A    between atoms: _233  and  _235
REMARK  101  A    between atoms: _235  and  _236
REMARK  102  A    between atoms: _239  and  _241
REMARK  103  A    between atoms: _241  and  _242
REMARK  104  A    between atoms: _241  and  _244
REMARK  105  A    between atoms: _244  and  _245
REMARK  106  A    between atoms: _245  and  _246
REMARK  107  A    between atoms: _246  and  _247
REMARK  108  A    between atoms: _256  and  _258
REMARK  109  A    between atoms: _258  and  _259
REMARK  110  A    between atoms: _258  and  _261
REMARK  111  A    between atoms: _261  and  _262
REMARK  112  A    between atoms: _267  and  _269
REMARK  113  A    between atoms: _269  and  _270
REMARK  114  A    between atoms: _269  and  _272
REMARK  115  A    between atoms: _272  and  _273
REMARK  116  A    between atoms: _278  and  _279
REMARK  117  A    between atoms: _281  and  _283
REMARK  118  A    between atoms: _283  and  _284
REMARK  119  A    between atoms: _287  and  _289
REMARK  120  A    between atoms: _289  and  _290
REMARK  121  A    between atoms: _289  and  _292
REMARK  122  A    between atoms: _295  and  _297
REMARK  123  A    between atoms: _297  and  _298
REMARK  124  A    between atoms: _297  and  _300
REMARK  125  A    between atoms: _303  and  _305
REMARK  126  A    between atoms: _305  and  _306
REMARK  127  A    between atoms: _305  and  _308
REMARK  128  A    between atoms: _308  and  _309
REMARK  129  A    between atoms: _309  and  _310
REMARK  130  A    between atoms: _313  and  _315
REMARK  131  A    between atoms: _315  and  _316
REMARK  132  A    between atoms: _315  and  _318
REMARK  133  A    between atoms: _318  and  _319
REMARK  134  A    between atoms: _322  and  _324
REMARK  135  A    between atoms: _324  and  _325
REMARK  136  A    between atoms: _324  and  _327
REMARK  137  A    between atoms: _327  and  _328
REMARK  138  A    between atoms: _328  and  _330
REMARK  139  A    between atoms: _330  and  MN_635
REMARK  140  A    between atoms: _331  and  _333
REMARK  141  A    between atoms: _333  and  _334
REMARK  142  A    between atoms: _333  and  _336
REMARK  143  A    between atoms: _336  and  _337
REMARK  144  A    between atoms: _340  and  _342
REMARK  145  A    between atoms: _342  and  _343
REMARK  146  A    between atoms: _342  and  _345
REMARK  147  A    between atoms: _345  and  _346
REMARK  148  A    between atoms: _353  and  _354
REMARK  149  A    between atoms: _359  and  _361
REMARK  150  A    between atoms: _361  and  _362
REMARK  151  A    between atoms: _364  and  _366
REMARK  152  A    between atoms: _366  and  _367
REMARK  153  A    between atoms: _366  and  _369
REMARK  154  A    between atoms: _369  and  _370
REMARK  155  A    between atoms: _373  and  _375
REMARK  156  A    between atoms: _375  and  _376
REMARK  157  A    between atoms: _378  and  _380
REMARK  158  A    between atoms: _380  and  _381
REMARK  159  A    between atoms: _380  and  _383
REMARK  160  A    between atoms: _383  and  _384
REMARK  161  A    between atoms: _394  and  _396
REMARK  162  A    between atoms: _396  and  _397
REMARK  163  A    between atoms: _400  and  _402
REMARK  164  A    between atoms: _402  and  _403
REMARK  165  A    between atoms: _402  and  _405
REMARK  166  A    between atoms: _405  and  _406
REMARK  167  A    between atoms: _412  and  _414
REMARK  168  A    between atoms: _414  and  _415
REMARK  169  A    between atoms: _414  and  _417
REMARK  170  A    between atoms: _417  and  _418
REMARK  171  A    between atoms: _428  and  _430
REMARK  172  A    between atoms: _430  and  _431
REMARK  173  A    between atoms: _430  and  _433
REMARK  174  A    between atoms: _433  and  _434
REMARK  175  A    between atoms: _437  and  _439
REMARK  176  A    between atoms: _439  and  _440
REMARK  177  A    between atoms: _439  and  _442
REMARK  178  A    between atoms: _442  and  _443
REMARK  179  A    between atoms: _446  and  _448
REMARK  180  A    between atoms: _448  and  _449
REMARK  181  A    between atoms: _448  and  _451
REMARK  182  A    between atoms: _451  and  _452
REMARK  183  A    between atoms: _462  and  _464
REMARK  184  A    between atoms: _464  and  _465
REMARK  185  A    between atoms: _464  and  _467
REMARK  186  A    between atoms: _467  and  _468
REMARK  187  A    between atoms: _468  and  _469
REMARK  188  A    between atoms: _469  and  _470
REMARK  189  A    between atoms: _479  and  _481
REMARK  190  A    between atoms: _481  and  _482
REMARK  191  A    between atoms: _481  and  _484
REMARK  192  A    between atoms: _484  and  _485
REMARK  193  A    between atoms: _488  and  _490
REMARK  194  A    between atoms: _490  and  _491
REMARK  195  A    between atoms: _490  and  _493
REMARK  196  A    between atoms: _493  and  _494
REMARK  197  A    between atoms: _500  and  _502
REMARK  198  A    between atoms: _502  and  _503
REMARK  199  A    between atoms: _505  and  _507
REMARK  200  A    between atoms: _507  and  _508
REMARK  201  A    between atoms: _507  and  _510
REMARK  202  A    between atoms: _510  and  _511
REMARK  203  A    between atoms: _511  and  _512
REMARK  204  A    between atoms: _512  and  _513
REMARK  205  A    between atoms: _522  and  _524
REMARK  206  A    between atoms: _524  and  _525
REMARK  207  A    between atoms: _524  and  _527
REMARK  208  A    between atoms: _527  and  _528
REMARK  209  A    between atoms: _528  and  _529
REMARK  210  A    between atoms: _529  and  _530
REMARK  211  A    between atoms: _530  and  _531
REMARK  212  A    between atoms: _535  and  _537
REMARK  213  A    between atoms: _537  and  _538
REMARK  214  A    between atoms: _540  and  _542
REMARK  215  A    between atoms: _542  and  _543
REMARK  216  A    between atoms: _542  and  _545
REMARK  217  A    between atoms: _548  and  _550
REMARK  218  A    between atoms: _550  and  _551
REMARK  219  A    between atoms: _550  and  _553
REMARK  220  A    between atoms: _553  and  _554
REMARK  221  A    between atoms: _556  and  _558
REMARK  222  A    between atoms: _558  and  _559
REMARK  223  A    between atoms: _558  and  _561
REMARK  224  A    between atoms: _561  and  _562
REMARK  225  A    between atoms: _567  and  _569
REMARK  226  A    between atoms: _569  and  _570
REMARK  227  A    between atoms: _572  and  _574
REMARK  228  A    between atoms: _574  and  _575
REMARK  229  A    between atoms: _574  and  _577
REMARK  230  A    between atoms: _577  and  _578
REMARK  231  A    between atoms: _584  and  _586
REMARK  232  A    between atoms: _586  and  _587
REMARK  233  A    between atoms: _586  and  _589
REMARK  234  A    between atoms: _589  and  _590
REMARK  235  A    between atoms: _596  and  _598
REMARK  236  A    between atoms: _598  and  _599
REMARK  237  A    between atoms: _598  and  _601
REMARK  238  A    between atoms: _601  and  _602
REMARK  239  A    between atoms: _605  and  _607
REMARK  240  A    between atoms: _607  and  _608
REMARK  241  A    between atoms: _607  and  _610
REMARK  242  A    between atoms: _610  and  _611
REMARK  243  A    between atoms: _611  and  _612
REMARK  244  A    between atoms: _612  and  _613
REMARK  245  A    between atoms: _613  and  _614
REMARK  246  A    between atoms: _618  and  _620
REMARK  247  A    between atoms: _620  and  _621
REMARK  248  A    between atoms: _620  and  _623
REMARK  249  A    between atoms: _623  and  _624
REMARK  250  A    between atoms: _624  and  _625
REMARK  251  A    between atoms: _625  and  _626
REMARK                            x       y       z     vdW  Elec       q    Type
REMARK                         _______ _______ _______ _____ _____    ______ ____
ROOT
ATOM      1  O   HOH     1       3.181  15.468  22.212  0.00  0.00    +0.000 OA
ENDROOT
TORSDOF 0
REMARK  Name = ../refined-set-2016/2am4/2am4_pocket.pdb
REMARK  251 active torsions:
REMARK  status: ('A' for Active; 'I' for Inactive)
REMARK    1  A    between atoms: _1  and  _3
REMARK    2  A    between atoms: _3  and  _4
REMARK    3  A    between atoms: _3  and  _6
REMARK    4  A    between atoms: _6  and  _7
REMARK    5  A    between atoms: _10  and  _12
REMARK    6  A    between atoms: _12  and  _13
REMARK    7  A    between atoms: _12  and  _15
REMARK    8  A    between atoms: _18  and  _20
REMARK    9  A    between atoms: _20  and  _21
REMARK   10  A    between atoms: _20  and  _23
REMARK   11  A    between atoms: _23  and  _24
REMARK   12  A    between atoms: _27  and  _29
REMARK   13  A    between atoms: _29  and  _30
REMARK   14  A    between atoms: _33  and  _35
REMARK   15  A    between atoms: _35  and  _36
REMARK   16  A    between atoms: _35  and  _38
REMARK   17  A    between atoms: _38  and  _39
REMARK   18  A    between atoms: _39  and  _109
REMARK   19  A    between atoms: _40  and  _42
REMARK   20  A    between atoms: _42  and  _43
REMARK   21  A    between atoms: _42  and  _45
REMARK   22  A    between atoms: _45  and  _46
REMARK   23  A    between atoms: _49  and  _51
REMARK   24  A    between atoms: _51  and  _52
REMARK   25  A    between atoms: _51  and  _54
REMARK   26  A    between atoms: _54  and  _55
REMARK   27  A    between atoms: _55  and  _56
REMARK   28  A    between atoms: _56  and  _57
REMARK   29  A    between atoms: _66  and  _68
REMARK   30  A    between atoms: _68  and  _69
REMARK   31  A    between atoms: _68  and  _71
REMARK   32  A    between atoms: _74  and  _76
REMARK   33  A    between atoms: _76  and  _77
REMARK   34  A    between atoms: _76  and  _79
REMARK   35  A    between atoms: _79  and  _80
REMARK   36  A    between atoms: _82  and  _84
REMARK   37  A    between atoms: _84  and  _85
REMARK   38  A    between atoms: _84  and  _87
REMARK   39  A    between atoms: _87  and  _88
REMARK   40  A    between atoms: _88  and  _89
REMARK   41  A    between atoms: _94  and  _96
REMARK   42  A    between atoms: _96  and  _97
REMARK   43  A    between atoms: _96  and  _99
REMARK   44  A    between atoms: _99  and  _100
REMARK   45  A    between atoms: _103  and  _105
REMARK   46  A    between atoms: _105  and  _106
REMARK   47  A    between atoms: _105  and  _108
REMARK   48  A    between atoms: _108  and  _109
REMARK   49  A    between atoms: _110  and  _112
REMARK   50  A    between atoms: _112  and  _113
REMARK   51  A    between atoms: _115  and  _117
REMARK   52  A    between atoms: _117  and  _118
REMARK   53  A    between atoms: _117  and  _120
REMARK   54  A    between atoms: _120  and  _121
REMARK   55  A    between atoms: _124  and  _126
REMARK   56  A    between atoms: _126  and  _127
REMARK   57  A    between atoms: _126  and  _129
REMARK   58  A    between atoms: _129  and  _130
REMARK   59  A    between atoms: _130  and  _131
REMARK   60  A    between atoms: _136  and  _138
REMARK   61  A    between atoms: _138  and  _139
REMARK   62  A    between atoms: _138  and  _141
REMARK   63  A    between atoms: _141  and  _142
REMARK   64  A    between atoms: _145  and  _147
REMARK   65  A    between atoms: _147  and  _148
REMARK   66  A    between atoms: _147  and  _150
REMARK   67  A    between atoms: _150  and  _151
REMARK   68  A    between atoms: _154  and  _156
REMARK   69  A    between atoms: _156  and  _157
REMARK   70  A    between atoms: _156  and  _159
REMARK   71  A    between atoms: _159  and  _160
REMARK   72  A    between atoms: _166  and  _168
REMARK   73  A    between atoms: _168  and  _169
REMARK   74  A    between atoms: _168  and  _171
REMARK   75  A    between atoms: _171  and  _172
REMARK   76  A    between atoms: _172  and  _173
REMARK   77  A    between atoms: _178  and  _180
REMARK   78  A    between atoms: _180  and  _181
REMARK   79  A    between atoms: _183  and  _185
REMARK   80  A    between atoms: _185  and  _186
REMARK   81  A    between atoms: _185  and  _188
REMARK   82  A    between atoms: _188  and  _189
REMARK   83  A    between atoms: _194  and  _195
REMARK   84  A    between atoms: _197  and  _199
REMARK   85  A    between atoms: _199  and  _200
REMARK   86  A    between atoms: _199  and  _202
REMARK   87  A    between atoms: _202  and  _203
REMARK   88  A    between atoms: _208  and  _209
REMARK   89  A    between atoms: _211  and  _213
REMARK   90  A    between atoms: _213  and  _214
REMARK   91  A    between atoms: _213  and  _216
REMARK   92  A    between atoms: _216  and  _217
REMARK   93  A    between atoms: _217  and  _218
REMARK   94  A    between atoms: _218  and  _219
REMARK   95  A    between atoms: _219  and  _220
REMARK   96  A    between atoms: _224  and  _226
REMARK   97  A    between atoms: _226  and  _227
REMARK   98  A    between atoms: _226  and  _229
REMARK   99  A    between atoms: _229  and  _230
REMARK  100  A    between atoms: _233  and  _235
REMARK  101  A    between atoms: _235  and  _236
REMARK  102  A    between atoms: _239  and  _241
REMARK  103  A    between atoms: _241  and  _242
REMARK  104  A    between atoms: _241  and  _244
REMARK  105  A    between atoms: _244  and  _245
REMARK  106  A    between atoms: _245  and  _246
REMARK  107  A    between atoms: _246  and  _247
REMARK  108  A    between atoms: _256  and  _258
REMARK  109  A    between atoms: _258  and  _259
REMARK  110  A    between atoms: _258  and  _261
REMARK  111  A    between atoms: _261  and  _262
REMARK  112  A    between atoms: _267  and  _269
REMARK  113  A    between atoms: _269  and  _270
REMARK  114  A    between atoms: _269  and  _272
REMARK  115  A    between atoms: _272  and  _273
REMARK  116  A    between atoms: _278  and  _279
REMARK  117  A    between atoms: _281  and  _283
REMARK  118  A    between atoms: _283  and  _284
REMARK  119  A    between atoms: _287  and  _289
REMARK  120  A    between atoms: _289  and  _290
REMARK  121  A    between atoms: _289  and  _292
REMARK  122  A    between atoms: _295  and  _297
REMARK  123  A    between atoms: _297  and  _298
REMARK  124  A    between atoms: _297  and  _300
REMARK  125  A    between atoms: _303  and  _305
REMARK  126  A    between atoms: _305  and  _306
REMARK  127  A    between atoms: _305  and  _308
REMARK  128  A    between atoms: _308  and  _309
REMARK  129  A    between atoms: _309  and  _310
REMARK  130  A    between atoms: _313  and  _315
REMARK  131  A    between atoms: _315  and  _316
REMARK  132  A    between atoms: _315  and  _318
REMARK  133  A    between atoms: _318  and  _319
REMARK  134  A    between atoms: _322  and  _324
REMARK  135  A    between atoms: _324  and  _325
REMARK  136  A    between atoms: _324  and  _327
REMARK  137  A    between atoms: _327  and  _328
REMARK  138  A    between atoms: _328  and  _330
REMARK  139  A    between atoms: _330  and  MN_635
REMARK  140  A    between atoms: _331  and  _333
REMARK  141  A    between atoms: _333  and  _334
REMARK  142  A    between atoms: _333  and  _336
REMARK  143  A    between atoms: _336  and  _337
REMARK  144  A    between atoms: _340  and  _342
REMARK  145  A    between atoms: _342  and  _343
REMARK  146  A    between atoms: _342  and  _345
REMARK  147  A    between atoms: _345  and  _346
REMARK  148  A    between atoms: _353  and  _354
REMARK  149  A    between atoms: _359  and  _361
REMARK  150  A    between atoms: _361  and  _362
REMARK  151  A    between atoms: _364  and  _366
REMARK  152  A    between atoms: _366  and  _367
REMARK  153  A    between atoms: _366  and  _369
REMARK  154  A    between atoms: _369  and  _370
REMARK  155  A    between atoms: _373  and  _375
REMARK  156  A    between atoms: _375  and  _376
REMARK  157  A    between atoms: _378  and  _380
REMARK  158  A    between atoms: _380  and  _381
REMARK  159  A    between atoms: _380  and  _383
REMARK  160  A    between atoms: _383  and  _384
REMARK  161  A    between atoms: _394  and  _396
REMARK  162  A    between atoms: _396  and  _397
REMARK  163  A    between atoms: _400  and  _402
REMARK  164  A    between atoms: _402  and  _403
REMARK  165  A    between atoms: _402  and  _405
REMARK  166  A    between atoms: _405  and  _406
REMARK  167  A    between atoms: _412  and  _414
REMARK  168  A    between atoms: _414  and  _415
REMARK  169  A    between atoms: _414  and  _417
REMARK  170  A    between atoms: _417  and  _418
REMARK  171  A    between atoms: _428  and  _430
REMARK  172  A    between atoms: _430  and  _431
REMARK  173  A    between atoms: _430  and  _433
REMARK  174  A    between atoms: _433  and  _434
REMARK  175  A    between atoms: _437  and  _439
REMARK  176  A    between atoms: _439  and  _440
REMARK  177  A    between atoms: _439  and  _442
REMARK  178  A    between atoms: _442  and  _443
REMARK  179  A    between atoms: _446  and  _448
REMARK  180  A    between atoms: _448  and  _449
REMARK  181  A    between atoms: _448  and  _451
REMARK  182  A    between atoms: _451  and  _452
REMARK  183  A    between atoms: _462  and  _464
REMARK  184  A    between atoms: _464  and  _465
REMARK  185  A    between atoms: _464  and  _467
REMARK  186  A    between atoms: _467  and  _468
REMARK  187  A    between atoms: _468  and  _469
REMARK  188  A    between atoms: _469  and  _470
REMARK  189  A    between atoms: _479  and  _481
REMARK  190  A    between atoms: _481  and  _482
REMARK  191  A    between atoms: _481  and  _484
REMARK  192  A    between atoms: _484  and  _485
REMARK  193  A    between atoms: _488  and  _490
REMARK  194  A    between atoms: _490  and  _491
REMARK  195  A    between atoms: _490  and  _493
REMARK  196  A    between atoms: _493  and  _494
REMARK  197  A    between atoms: _500  and  _502
REMARK  198  A    between atoms: _502  and  _503
REMARK  199  A    between atoms: _505  and  _507
REMARK  200  A    between atoms: _507  and  _508
REMARK  201  A    between atoms: _507  and  _510
REMARK  202  A    between atoms: _510  and  _511
REMARK  203  A    between atoms: _511  and  _512
REMARK  204  A    between atoms: _512  and  _513
REMARK  205  A    between atoms: _522  and  _524
REMARK  206  A    between atoms: _524  and  _525
REMARK  207  A    between atoms: _524  and  _527
REMARK  208  A    between atoms: _527  and  _528
REMARK  209  A    between atoms: _528  and  _529
REMARK  210  A    between atoms: _529  and  _530
REMARK  211  A    between atoms: _530  and  _531
REMARK  212  A    between atoms: _535  and  _537
REMARK  213  A    between atoms: _537  and  _538
REMARK  214  A    between atoms: _540  and  _542
REMARK  215  A    between atoms: _542  and  _543
REMARK  216  A    between atoms: _542  and  _545
REMARK  217  A    between atoms: _548  and  _550
REMARK  218  A    between atoms: _550  and  _551
REMARK  219  A    between atoms: _550  and  _553
REMARK  220  A    between atoms: _553  and  _554
REMARK  221  A    between atoms: _556  and  _558
REMARK  222  A    between atoms: _558  and  _559
REMARK  223  A    between atoms: _558  and  _561
REMARK  224  A    between atoms: _561  and  _562
REMARK  225  A    between atoms: _567  and  _569
REMARK  226  A    between atoms: _569  and  _570
REMARK  227  A    between atoms: _572  and  _574
REMARK  228  A    between atoms: _574  and  _575
REMARK  229  A    between atoms: _574  and  _577
REMARK  230  A    between atoms: _577  and  _578
REMARK  231  A    between atoms: _584  and  _586
REMARK  232  A    between atoms: _586  and  _587
REMARK  233  A    between atoms: _586  and  _589
REMARK  234  A    between atoms: _589  and  _590
REMARK  235  A    between atoms: _596  and  _598
REMARK  236  A    between atoms: _598  and  _599
REMARK  237  A    between atoms: _598  and  _601
REMARK  238  A    between atoms: _601  and  _602
REMARK  239  A    between atoms: _605  and  _607
REMARK  240  A    between atoms: _607  and  _608
REMARK  241  A    between atoms: _607  and  _610
REMARK  242  A    between atoms: _610  and  _611
REMARK  243  A    between atoms: _611  and  _612
REMARK  244  A    between atoms: _612  and  _613
REMARK  245  A    between atoms: _613  and  _614
REMARK  246  A    between atoms: _618  and  _620
REMARK  247  A    between atoms: _620  and  _621
REMARK  248  A    between atoms: _620  and  _623
REMARK  249  A    between atoms: _623  and  _624
REMARK  250  A    between atoms: _624  and  _625
REMARK  251  A    between atoms: _625  and  _626
REMARK                            x       y       z     vdW  Elec       q    Type
REMARK                         _______ _______ _______ _____ _____    ______ ____
ROOT
ATOM      1  O   HOH     1      -0.125  15.416  16.937  0.00  0.00    +0.000 OA
ENDROOT
TORSDOF 0
REMARK  Name = ../refined-set-2016/2am4/2am4_pocket.pdb
REMARK  251 active torsions:
REMARK  status: ('A' for Active; 'I' for Inactive)
REMARK    1  A    between atoms: _1  and  _3
REMARK    2  A    between atoms: _3  and  _4
REMARK    3  A    between atoms: _3  and  _6
REMARK    4  A    between atoms: _6  and  _7
REMARK    5  A    between atoms: _10  and  _12
REMARK    6  A    between atoms: _12  and  _13
REMARK    7  A    between atoms: _12  and  _15
REMARK    8  A    between atoms: _18  and  _20
REMARK    9  A    between atoms: _20  and  _21
REMARK   10  A    between atoms: _20  and  _23
REMARK   11  A    between atoms: _23  and  _24
REMARK   12  A    between atoms: _27  and  _29
REMARK   13  A    between atoms: _29  and  _30
REMARK   14  A    between atoms: _33  and  _35
REMARK   15  A    between atoms: _35  and  _36
REMARK   16  A    between atoms: _35  and  _38
REMARK   17  A    between atoms: _38  and  _39
REMARK   18  A    between atoms: _39  and  _109
REMARK   19  A    between atoms: _40  and  _42
REMARK   20  A    between atoms: _42  and  _43
REMARK   21  A    between atoms: _42  and  _45
REMARK   22  A    between atoms: _45  and  _46
REMARK   23  A    between atoms: _49  and  _51
REMARK   24  A    between atoms: _51  and  _52
REMARK   25  A    between atoms: _51  and  _54
REMARK   26  A    between atoms: _54  and  _55
REMARK   27  A    between atoms: _55  and  _56
REMARK   28  A    between atoms: _56  and  _57
REMARK   29  A    between atoms: _66  and  _68
REMARK   30  A    between atoms: _68  and  _69
REMARK   31  A    between atoms: _68  and  _71
REMARK   32  A    between atoms: _74  and  _76
REMARK   33  A    between atoms: _76  and  _77
REMARK   34  A    between atoms: _76  and  _79
REMARK   35  A    between atoms: _79  and  _80
REMARK   36  A    between atoms: _82  and  _84
REMARK   37  A    between atoms: _84  and  _85
REMARK   38  A    between atoms: _84  and  _87
REMARK   39  A    between atoms: _87  and  _88
REMARK   40  A    between atoms: _88  and  _89
REMARK   41  A    between atoms: _94  and  _96
REMARK   42  A    between atoms: _96  and  _97
REMARK   43  A    between atoms: _96  and  _99
REMARK   44  A    between atoms: _99  and  _100
REMARK   45  A    between atoms: _103  and  _105
REMARK   46  A    between atoms: _105  and  _106
REMARK   47  A    between atoms: _105  and  _108
REMARK   48  A    between atoms: _108  and  _109
REMARK   49  A    between atoms: _110  and  _112
REMARK   50  A    between atoms: _112  and  _113
REMARK   51  A    between atoms: _115  and  _117
REMARK   52  A    between atoms: _117  and  _118
REMARK   53  A    between atoms: _117  and  _120
REMARK   54  A    between atoms: _120  and  _121
REMARK   55  A    between atoms: _124  and  _126
REMARK   56  A    between atoms: _126  and  _127
REMARK   57  A    between atoms: _126  and  _129
REMARK   58  A    between atoms: _129  and  _130
REMARK   59  A    between atoms: _130  and  _131
REMARK   60  A    between atoms: _136  and  _138
REMARK   61  A    between atoms: _138  and  _139
REMARK   62  A    between atoms: _138  and  _141
REMARK   63  A    between atoms: _141  and  _142
REMARK   64  A    between atoms: _145  and  _147
REMARK   65  A    between atoms: _147  and  _148
REMARK   66  A    between atoms: _147  and  _150
REMARK   67  A    between atoms: _150  and  _151
REMARK   68  A    between atoms: _154  and  _156
REMARK   69  A    between atoms: _156  and  _157
REMARK   70  A    between atoms: _156  and  _159
REMARK   71  A    between atoms: _159  and  _160
REMARK   72  A    between atoms: _166  and  _168
REMARK   73  A    between atoms: _168  and  _169
REMARK   74  A    between atoms: _168  and  _171
REMARK   75  A    between atoms: _171  and  _172
REMARK   76  A    between atoms: _172  and  _173
REMARK   77  A    between atoms: _178  and  _180
REMARK   78  A    between atoms: _180  and  _181
REMARK   79  A    between atoms: _183  and  _185
REMARK   80  A    between atoms: _185  and  _186
REMARK   81  A    between atoms: _185  and  _188
REMARK   82  A    between atoms: _188  and  _189
REMARK   83  A    between atoms: _194  and  _195
REMARK   84  A    between atoms: _197  and  _199
REMARK   85  A    between atoms: _199  and  _200
REMARK   86  A    between atoms: _199  and  _202
REMARK   87  A    between atoms: _202  and  _203
REMARK   88  A    between atoms: _208  and  _209
REMARK   89  A    between atoms: _211  and  _213
REMARK   90  A    between atoms: _213  and  _214
REMARK   91  A    between atoms: _213  and  _216
REMARK   92  A    between atoms: _216  and  _217
REMARK   93  A    between atoms: _217  and  _218
REMARK   94  A    between atoms: _218  and  _219
REMARK   95  A    between atoms: _219  and  _220
REMARK   96  A    between atoms: _224  and  _226
REMARK   97  A    between atoms: _226  and  _227
REMARK   98  A    between atoms: _226  and  _229
REMARK   99  A    between atoms: _229  and  _230
REMARK  100  A    between atoms: _233  and  _235
REMARK  101  A    between atoms: _235  and  _236
REMARK  102  A    between atoms: _239  and  _241
REMARK  103  A    between atoms: _241  and  _242
REMARK  104  A    between atoms: _241  and  _244
REMARK  105  A    between atoms: _244  and  _245
REMARK  106  A    between atoms: _245  and  _246
REMARK  107  A    between atoms: _246  and  _247
REMARK  108  A    between atoms: _256  and  _258
REMARK  109  A    between atoms: _258  and  _259
REMARK  110  A    between atoms: _258  and  _261
REMARK  111  A    between atoms: _261  and  _262
REMARK  112  A    between atoms: _267  and  _269
REMARK  113  A    between atoms: _269  and  _270
REMARK  114  A    between atoms: _269  and  _272
REMARK  115  A    between atoms: _272  and  _273
REMARK  116  A    between atoms: _278  and  _279
REMARK  117  A    between atoms: _281  and  _283
REMARK  118  A    between atoms: _283  and  _284
REMARK  119  A    between atoms: _287  and  _289
REMARK  120  A    between atoms: _289  and  _290
REMARK  121  A    between atoms: _289  and  _292
REMARK  122  A    between atoms: _295  and  _297
REMARK  123  A    between atoms: _297  and  _298
REMARK  124  A    between atoms: _297  and  _300
REMARK  125  A    between atoms: _303  and  _305
REMARK  126  A    between atoms: _305  and  _306
REMARK  127  A    between atoms: _305  and  _308
REMARK  128  A    between atoms: _308  and  _309
REMARK  129  A    between atoms: _309  and  _310
REMARK  130  A    between atoms: _313  and  _315
REMARK  131  A    between atoms: _315  and  _316
REMARK  132  A    between atoms: _315  and  _318
REMARK  133  A    between atoms: _318  and  _319
REMARK  134  A    between atoms: _322  and  _324
REMARK  135  A    between atoms: _324  and  _325
REMARK  136  A    between atoms: _324  and  _327
REMARK  137  A    between atoms: _327  and  _328
REMARK  138  A    between atoms: _328  and  _330
REMARK  139  A    between atoms: _330  and  MN_635
REMARK  140  A    between atoms: _331  and  _333
REMARK  141  A    between atoms: _333  and  _334
REMARK  142  A    between atoms: _333  and  _336
REMARK  143  A    between atoms: _336  and  _337
REMARK  144  A    between atoms: _340  and  _342
REMARK  145  A    between atoms: _342  and  _343
REMARK  146  A    between atoms: _342  and  _345
REMARK  147  A    between atoms: _345  and  _346
REMARK  148  A    between atoms: _353  and  _354
REMARK  149  A    between atoms: _359  and  _361
REMARK  150  A    between atoms: _361  and  _362
REMARK  151  A    between atoms: _364  and  _366
REMARK  152  A    between atoms: _366  and  _367
REMARK  153  A    between atoms: _366  and  _369
REMARK  154  A    between atoms: _369  and  _370
REMARK  155  A    between atoms: _373  and  _375
REMARK  156  A    between atoms: _375  and  _376
REMARK  157  A    between atoms: _378  and  _380
REMARK  158  A    between atoms: _380  and  _381
REMARK  159  A    between atoms: _380  and  _383
REMARK  160  A    between atoms: _383  and  _384
REMARK  161  A    between atoms: _394  and  _396
REMARK  162  A    between atoms: _396  and  _397
REMARK  163  A    between atoms: _400  and  _402
REMARK  164  A    between atoms: _402  and  _403
REMARK  165  A    between atoms: _402  and  _405
REMARK  166  A    between atoms: _405  and  _406
REMARK  167  A    between atoms: _412  and  _414
REMARK  168  A    between atoms: _414  and  _415
REMARK  169  A    between atoms: _414  and  _417
REMARK  170  A    between atoms: _417  and  _418
REMARK  171  A    between atoms: _428  and  _430
REMARK  172  A    between atoms: _430  and  _431
REMARK  173  A    between atoms: _430  and  _433
REMARK  174  A    between atoms: _433  and  _434
REMARK  175  A    between atoms: _437  and  _439
REMARK  176  A    between atoms: _439  and  _440
REMARK  177  A    between atoms: _439  and  _442
REMARK  178  A    between atoms: _442  and  _443
REMARK  179  A    between atoms: _446  and  _448
REMARK  180  A    between atoms: _448  and  _449
REMARK  181  A    between atoms: _448  and  _451
REMARK  182  A    between atoms: _451  and  _452
REMARK  183  A    between atoms: _462  and  _464
REMARK  184  A    between atoms: _464  and  _465
REMARK  185  A    between atoms: _464  and  _467
REMARK  186  A    between atoms: _467  and  _468
REMARK  187  A    between atoms: _468  and  _469
REMARK  188  A    between atoms: _469  and  _470
REMARK  189  A    between atoms: _479  and  _481
REMARK  190  A    between atoms: _481  and  _482
REMARK  191  A    between atoms: _481  and  _484
REMARK  192  A    between atoms: _484  and  _485
REMARK  193  A    between atoms: _488  and  _490
REMARK  194  A    between atoms: _490  and  _491
REMARK  195  A    between atoms: _490  and  _493
REMARK  196  A    between atoms: _493  and  _494
REMARK  197  A    between atoms: _500  and  _502
REMARK  198  A    between atoms: _502  and  _503
REMARK  199  A    between atoms: _505  and  _507
REMARK  200  A    between atoms: _507  and  _508
REMARK  201  A    between atoms: _507  and  _510
REMARK  202  A    between atoms: _510  and  _511
REMARK  203  A    between atoms: _511  and  _512
REMARK  204  A    between atoms: _512  and  _513
REMARK  205  A    between atoms: _522  and  _524
REMARK  206  A    between atoms: _524  and  _525
REMARK  207  A    between atoms: _524  and  _527
REMARK  208  A    between atoms: _527  and  _528
REMARK  209  A    between atoms: _528  and  _529
REMARK  210  A    between atoms: _529  and  _530
REMARK  211  A    between atoms: _530  and  _531
REMARK  212  A    between atoms: _535  and  _537
REMARK  213  A    between atoms: _537  and  _538
REMARK  214  A    between atoms: _540  and  _542
REMARK  215  A    between atoms: _542  and  _543
REMARK  216  A    between atoms: _542  and  _545
REMARK  217  A    between atoms: _548  and  _550
REMARK  218  A    between atoms: _550  and  _551
REMARK  219  A    between atoms: _550  and  _553
REMARK  220  A    between atoms: _553  and  _554
REMARK  221  A    between atoms: _556  and  _558
REMARK  222  A    between atoms: _558  and  _559
REMARK  223  A    between atoms: _558  and  _561
REMARK  224  A    between atoms: _561  and  _562
REMARK  225  A    between atoms: _567  and  _569
REMARK  226  A    between atoms: _569  and  _570
REMARK  227  A    between atoms: _572  and  _574
REMARK  228  A    between atoms: _574  and  _575
REMARK  229  A    between atoms: _574  and  _577
REMARK  230  A    between atoms: _577  and  _578
REMARK  231  A    between atoms: _584  and  _586
REMARK  232  A    between atoms: _586  and  _587
REMARK  233  A    between atoms: _586  and  _589
REMARK  234  A    between atoms: _589  and  _590
REMARK  235  A    between atoms: _596  and  _598
REMARK  236  A    between atoms: _598  and  _599
REMARK  237  A    between atoms: _598  and  _601
REMARK  238  A    between atoms: _601  and  _602
REMARK  239  A    between atoms: _605  and  _607
REMARK  240  A    between atoms: _607  and  _608
REMARK  241  A    between atoms: _607  and  _610
REMARK  242  A    between atoms: _610  and  _611
REMARK  243  A    between atoms: _611  and  _612
REMARK  244  A    between atoms: _612  and  _613
REMARK  245  A    between atoms: _613  and  _614
REMARK  246  A    between atoms: _618  and  _620
REMARK  247  A    between atoms: _620  and  _621
REMARK  248  A    between atoms: _620  and  _623
REMARK  249  A    between atoms: _623  and  _624
REMARK  250  A    between atoms: _624  and  _625
REMARK  251  A    between atoms: _625  and  _626
REMARK                            x       y       z     vdW  Elec       q    Type
REMARK                         _______ _______ _______ _____ _____    ______ ____
ROOT
ATOM      1  O   HOH     1       5.214  11.745   5.386  0.00  0.00    +0.000 OA
ENDROOT
TORSDOF 0
REMARK  Name = ../refined-set-2016/2am4/2am4_pocket.pdb
REMARK  251 active torsions:
REMARK  status: ('A' for Active; 'I' for Inactive)
REMARK    1  A    between atoms: _1  and  _3
REMARK    2  A    between atoms: _3  and  _4
REMARK    3  A    between atoms: _3  and  _6
REMARK    4  A    between atoms: _6  and  _7
REMARK    5  A    between atoms: _10  and  _12
REMARK    6  A    between atoms: _12  and  _13
REMARK    7  A    between atoms: _12  and  _15
REMARK    8  A    between atoms: _18  and  _20
REMARK    9  A    between atoms: _20  and  _21
REMARK   10  A    between atoms: _20  and  _23
REMARK   11  A    between atoms: _23  and  _24
REMARK   12  A    between atoms: _27  and  _29
REMARK   13  A    between atoms: _29  and  _30
REMARK   14  A    between atoms: _33  and  _35
REMARK   15  A    between atoms: _35  and  _36
REMARK   16  A    between atoms: _35  and  _38
REMARK   17  A    between atoms: _38  and  _39
REMARK   18  A    between atoms: _39  and  _109
REMARK   19  A    between atoms: _40  and  _42
REMARK   20  A    between atoms: _42  and  _43
REMARK   21  A    between atoms: _42  and  _45
REMARK   22  A    between atoms: _45  and  _46
REMARK   23  A    between atoms: _49  and  _51
REMARK   24  A    between atoms: _51  and  _52
REMARK   25  A    between atoms: _51  and  _54
REMARK   26  A    between atoms: _54  and  _55
REMARK   27  A    between atoms: _55  and  _56
REMARK   28  A    between atoms: _56  and  _57
REMARK   29  A    between atoms: _66  and  _68
REMARK   30  A    between atoms: _68  and  _69
REMARK   31  A    between atoms: _68  and  _71
REMARK   32  A    between atoms: _74  and  _76
REMARK   33  A    between atoms: _76  and  _77
REMARK   34  A    between atoms: _76  and  _79
REMARK   35  A    between atoms: _79  and  _80
REMARK   36  A    between atoms: _82  and  _84
REMARK   37  A    between atoms: _84  and  _85
REMARK   38  A    between atoms: _84  and  _87
REMARK   39  A    between atoms: _87  and  _88
REMARK   40  A    between atoms: _88  and  _89
REMARK   41  A    between atoms: _94  and  _96
REMARK   42  A    between atoms: _96  and  _97
REMARK   43  A    between atoms: _96  and  _99
REMARK   44  A    between atoms: _99  and  _100
REMARK   45  A    between atoms: _103  and  _105
REMARK   46  A    between atoms: _105  and  _106
REMARK   47  A    between atoms: _105  and  _108
REMARK   48  A    between atoms: _108  and  _109
REMARK   49  A    between atoms: _110  and  _112
REMARK   50  A    between atoms: _112  and  _113
REMARK   51  A    between atoms: _115  and  _117
REMARK   52  A    between atoms: _117  and  _118
REMARK   53  A    between atoms: _117  and  _120
REMARK   54  A    between atoms: _120  and  _121
REMARK   55  A    between atoms: _124  and  _126
REMARK   56  A    between atoms: _126  and  _127
REMARK   57  A    between atoms: _126  and  _129
REMARK   58  A    between atoms: _129  and  _130
REMARK   59  A    between atoms: _130  and  _131
REMARK   60  A    between atoms: _136  and  _138
REMARK   61  A    between atoms: _138  and  _139
REMARK   62  A    between atoms: _138  and  _141
REMARK   63  A    between atoms: _141  and  _142
REMARK   64  A    between atoms: _145  and  _147
REMARK   65  A    between atoms: _147  and  _148
REMARK   66  A    between atoms: _147  and  _150
REMARK   67  A    between atoms: _150  and  _151
REMARK   68  A    between atoms: _154  and  _156
REMARK   69  A    between atoms: _156  and  _157
REMARK   70  A    between atoms: _156  and  _159
REMARK   71  A    between atoms: _159  and  _160
REMARK   72  A    between atoms: _166  and  _168
REMARK   73  A    between atoms: _168  and  _169
REMARK   74  A    between atoms: _168  and  _171
REMARK   75  A    between atoms: _171  and  _172
REMARK   76  A    between atoms: _172  and  _173
REMARK   77  A    between atoms: _178  and  _180
REMARK   78  A    between atoms: _180  and  _181
REMARK   79  A    between atoms: _183  and  _185
REMARK   80  A    between atoms: _185  and  _186
REMARK   81  A    between atoms: _185  and  _188
REMARK   82  A    between atoms: _188  and  _189
REMARK   83  A    between atoms: _194  and  _195
REMARK   84  A    between atoms: _197  and  _199
REMARK   85  A    between atoms: _199  and  _200
REMARK   86  A    between atoms: _199  and  _202
REMARK   87  A    between atoms: _202  and  _203
REMARK   88  A    between atoms: _208  and  _209
REMARK   89  A    between atoms: _211  and  _213
REMARK   90  A    between atoms: _213  and  _214
REMARK   91  A    between atoms: _213  and  _216
REMARK   92  A    between atoms: _216  and  _217
REMARK   93  A    between atoms: _217  and  _218
REMARK   94  A    between atoms: _218  and  _219
REMARK   95  A    between atoms: _219  and  _220
REMARK   96  A    between atoms: _224  and  _226
REMARK   97  A    between atoms: _226  and  _227
REMARK   98  A    between atoms: _226  and  _229
REMARK   99  A    between atoms: _229  and  _230
REMARK  100  A    between atoms: _233  and  _235
REMARK  101  A    between atoms: _235  and  _236
REMARK  102  A    between atoms: _239  and  _241
REMARK  103  A    between atoms: _241  and  _242
REMARK  104  A    between atoms: _241  and  _244
REMARK  105  A    between atoms: _244  and  _245
REMARK  106  A    between atoms: _245  and  _246
REMARK  107  A    between atoms: _246  and  _247
REMARK  108  A    between atoms: _256  and  _258
REMARK  109  A    between atoms: _258  and  _259
REMARK  110  A    between atoms: _258  and  _261
REMARK  111  A    between atoms: _261  and  _262
REMARK  112  A    between atoms: _267  and  _269
REMARK  113  A    between atoms: _269  and  _270
REMARK  114  A    between atoms: _269  and  _272
REMARK  115  A    between atoms: _272  and  _273
REMARK  116  A    between atoms: _278  and  _279
REMARK  117  A    between atoms: _281  and  _283
REMARK  118  A    between atoms: _283  and  _284
REMARK  119  A    between atoms: _287  and  _289
REMARK  120  A    between atoms: _289  and  _290
REMARK  121  A    between atoms: _289  and  _292
REMARK  122  A    between atoms: _295  and  _297
REMARK  123  A    between atoms: _297  and  _298
REMARK  124  A    between atoms: _297  and  _300
REMARK  125  A    between atoms: _303  and  _305
REMARK  126  A    between atoms: _305  and  _306
REMARK  127  A    between atoms: _305  and  _308
REMARK  128  A    between atoms: _308  and  _309
REMARK  129  A    between atoms: _309  and  _310
REMARK  130  A    between atoms: _313  and  _315
REMARK  131  A    between atoms: _315  and  _316
REMARK  132  A    between atoms: _315  and  _318
REMARK  133  A    between atoms: _318  and  _319
REMARK  134  A    between atoms: _322  and  _324
REMARK  135  A    between atoms: _324  and  _325
REMARK  136  A    between atoms: _324  and  _327
REMARK  137  A    between atoms: _327  and  _328
REMARK  138  A    between atoms: _328  and  _330
REMARK  139  A    between atoms: _330  and  MN_635
REMARK  140  A    between atoms: _331  and  _333
REMARK  141  A    between atoms: _333  and  _334
REMARK  142  A    between atoms: _333  and  _336
REMARK  143  A    between atoms: _336  and  _337
REMARK  144  A    between atoms: _340  and  _342
REMARK  145  A    between atoms: _342  and  _343
REMARK  146  A    between atoms: _342  and  _345
REMARK  147  A    between atoms: _345  and  _346
REMARK  148  A    between atoms: _353  and  _354
REMARK  149  A    between atoms: _359  and  _361
REMARK  150  A    between atoms: _361  and  _362
REMARK  151  A    between atoms: _364  and  _366
REMARK  152  A    between atoms: _366  and  _367
REMARK  153  A    between atoms: _366  and  _369
REMARK  154  A    between atoms: _369  and  _370
REMARK  155  A    between atoms: _373  and  _375
REMARK  156  A    between atoms: _375  and  _376
REMARK  157  A    between atoms: _378  and  _380
REMARK  158  A    between atoms: _380  and  _381
REMARK  159  A    between atoms: _380  and  _383
REMARK  160  A    between atoms: _383  and  _384
REMARK  161  A    between atoms: _394  and  _396
REMARK  162  A    between atoms: _396  and  _397
REMARK  163  A    between atoms: _400  and  _402
REMARK  164  A    between atoms: _402  and  _403
REMARK  165  A    between atoms: _402  and  _405
REMARK  166  A    between atoms: _405  and  _406
REMARK  167  A    between atoms: _412  and  _414
REMARK  168  A    between atoms: _414  and  _415
REMARK  169  A    between atoms: _414  and  _417
REMARK  170  A    between atoms: _417  and  _418
REMARK  171  A    between atoms: _428  and  _430
REMARK  172  A    between atoms: _430  and  _431
REMARK  173  A    between atoms: _430  and  _433
REMARK  174  A    between atoms: _433  and  _434
REMARK  175  A    between atoms: _437  and  _439
REMARK  176  A    between atoms: _439  and  _440
REMARK  177  A    between atoms: _439  and  _442
REMARK  178  A    between atoms: _442  and  _443
REMARK  179  A    between atoms: _446  and  _448
REMARK  180  A    between atoms: _448  and  _449
REMARK  181  A    between atoms: _448  and  _451
REMARK  182  A    between atoms: _451  and  _452
REMARK  183  A    between atoms: _462  and  _464
REMARK  184  A    between atoms: _464  and  _465
REMARK  185  A    between atoms: _464  and  _467
REMARK  186  A    between atoms: _467  and  _468
REMARK  187  A    between atoms: _468  and  _469
REMARK  188  A    between atoms: _469  and  _470
REMARK  189  A    between atoms: _479  and  _481
REMARK  190  A    between atoms: _481  and  _482
REMARK  191  A    between atoms: _481  and  _484
REMARK  192  A    between atoms: _484  and  _485
REMARK  193  A    between atoms: _488  and  _490
REMARK  194  A    between atoms: _490  and  _491
REMARK  195  A    between atoms: _490  and  _493
REMARK  196  A    between atoms: _493  and  _494
REMARK  197  A    between atoms: _500  and  _502
REMARK  198  A    between atoms: _502  and  _503
REMARK  199  A    between atoms: _505  and  _507
REMARK  200  A    between atoms: _507  and  _508
REMARK  201  A    between atoms: _507  and  _510
REMARK  202  A    between atoms: _510  and  _511
REMARK  203  A    between atoms: _511  and  _512
REMARK  204  A    between atoms: _512  and  _513
REMARK  205  A    between atoms: _522  and  _524
REMARK  206  A    between atoms: _524  and  _525
REMARK  207  A    between atoms: _524  and  _527
REMARK  208  A    between atoms: _527  and  _528
REMARK  209  A    between atoms: _528  and  _529
REMARK  210  A    between atoms: _529  and  _530
REMARK  211  A    between atoms: _530  and  _531
REMARK  212  A    between atoms: _535  and  _537
REMARK  213  A    between atoms: _537  and  _538
REMARK  214  A    between atoms: _540  and  _542
REMARK  215  A    between atoms: _542  and  _543
REMARK  216  A    between atoms: _542  and  _545
REMARK  217  A    between atoms: _548  and  _550
REMARK  218  A    between atoms: _550  and  _551
REMARK  219  A    between atoms: _550  and  _553
REMARK  220  A    between atoms: _553  and  _554
REMARK  221  A    between atoms: _556  and  _558
REMARK  222  A    between atoms: _558  and  _559
REMARK  223  A    between atoms: _558  and  _561
REMARK  224  A    between atoms: _561  and  _562
REMARK  225  A    between atoms: _567  and  _569
REMARK  226  A    between atoms: _569  and  _570
REMARK  227  A    between atoms: _572  and  _574
REMARK  228  A    between atoms: _574  and  _575
REMARK  229  A    between atoms: _574  and  _577
REMARK  230  A    between atoms: _577  and  _578
REMARK  231  A    between atoms: _584  and  _586
REMARK  232  A    between atoms: _586  and  _587
REMARK  233  A    between atoms: _586  and  _589
REMARK  234  A    between atoms: _589  and  _590
REMARK  235  A    between atoms: _596  and  _598
REMARK  236  A    between atoms: _598  and  _599
REMARK  237  A    between atoms: _598  and  _601
REMARK  238  A    between atoms: _601  and  _602
REMARK  239  A    between atoms: _605  and  _607
REMARK  240  A    between atoms: _607  and  _608
REMARK  241  A    between atoms: _607  and  _610
REMARK  242  A    between atoms: _610  and  _611
REMARK  243  A    between atoms: _611  and  _612
REMARK  244  A    between atoms: _612  and  _613
REMARK  245  A    between atoms: _613  and  _614
REMARK  246  A    between atoms: _618  and  _620
REMARK  247  A    between atoms: _620  and  _621
REMARK  248  A    between atoms: _620  and  _623
REMARK  249  A    between atoms: _623  and  _624
REMARK  250  A    between atoms: _624  and  _625
REMARK  251  A    between atoms: _625  and  _626
REMARK                            x       y       z     vdW  Elec       q    Type
REMARK                         _______ _______ _______ _____ _____    ______ ____
ROOT
ATOM      1  O   HOH     1       3.526  18.565   6.123  0.00  0.00    +0.000 OA
ENDROOT
TORSDOF 0
REMARK  Name = ../refined-set-2016/2am4/2am4_pocket.pdb
REMARK  251 active torsions:
REMARK  status: ('A' for Active; 'I' for Inactive)
REMARK    1  A    between atoms: _1  and  _3
REMARK    2  A    between atoms: _3  and  _4
REMARK    3  A    between atoms: _3  and  _6
REMARK    4  A    between atoms: _6  and  _7
REMARK    5  A    between atoms: _10  and  _12
REMARK    6  A    between atoms: _12  and  _13
REMARK    7  A    between atoms: _12  and  _15
REMARK    8  A    between atoms: _18  and  _20
REMARK    9  A    between atoms: _20  and  _21
REMARK   10  A    between atoms: _20  and  _23
REMARK   11  A    between atoms: _23  and  _24
REMARK   12  A    between atoms: _27  and  _29
REMARK   13  A    between atoms: _29  and  _30
REMARK   14  A    between atoms: _33  and  _35
REMARK   15  A    between atoms: _35  and  _36
REMARK   16  A    between atoms: _35  and  _38
REMARK   17  A    between atoms: _38  and  _39
REMARK   18  A    between atoms: _39  and  _109
REMARK   19  A    between atoms: _40  and  _42
REMARK   20  A    between atoms: _42  and  _43
REMARK   21  A    between atoms: _42  and  _45
REMARK   22  A    between atoms: _45  and  _46
REMARK   23  A    between atoms: _49  and  _51
REMARK   24  A    between atoms: _51  and  _52
REMARK   25  A    between atoms: _51  and  _54
REMARK   26  A    between atoms: _54  and  _55
REMARK   27  A    between atoms: _55  and  _56
REMARK   28  A    between atoms: _56  and  _57
REMARK   29  A    between atoms: _66  and  _68
REMARK   30  A    between atoms: _68  and  _69
REMARK   31  A    between atoms: _68  and  _71
REMARK   32  A    between atoms: _74  and  _76
REMARK   33  A    between atoms: _76  and  _77
REMARK   34  A    between atoms: _76  and  _79
REMARK   35  A    between atoms: _79  and  _80
REMARK   36  A    between atoms: _82  and  _84
REMARK   37  A    between atoms: _84  and  _85
REMARK   38  A    between atoms: _84  and  _87
REMARK   39  A    between atoms: _87  and  _88
REMARK   40  A    between atoms: _88  and  _89
REMARK   41  A    between atoms: _94  and  _96
REMARK   42  A    between atoms: _96  and  _97
REMARK   43  A    between atoms: _96  and  _99
REMARK   44  A    between atoms: _99  and  _100
REMARK   45  A    between atoms: _103  and  _105
REMARK   46  A    between atoms: _105  and  _106
REMARK   47  A    between atoms: _105  and  _108
REMARK   48  A    between atoms: _108  and  _109
REMARK   49  A    between atoms: _110  and  _112
REMARK   50  A    between atoms: _112  and  _113
REMARK   51  A    between atoms: _115  and  _117
REMARK   52  A    between atoms: _117  and  _118
REMARK   53  A    between atoms: _117  and  _120
REMARK   54  A    between atoms: _120  and  _121
REMARK   55  A    between atoms: _124  and  _126
REMARK   56  A    between atoms: _126  and  _127
REMARK   57  A    between atoms: _126  and  _129
REMARK   58  A    between atoms: _129  and  _130
REMARK   59  A    between atoms: _130  and  _131
REMARK   60  A    between atoms: _136  and  _138
REMARK   61  A    between atoms: _138  and  _139
REMARK   62  A    between atoms: _138  and  _141
REMARK   63  A    between atoms: _141  and  _142
REMARK   64  A    between atoms: _145  and  _147
REMARK   65  A    between atoms: _147  and  _148
REMARK   66  A    between atoms: _147  and  _150
REMARK   67  A    between atoms: _150  and  _151
REMARK   68  A    between atoms: _154  and  _156
REMARK   69  A    between atoms: _156  and  _157
REMARK   70  A    between atoms: _156  and  _159
REMARK   71  A    between atoms: _159  and  _160
REMARK   72  A    between atoms: _166  and  _168
REMARK   73  A    between atoms: _168  and  _169
REMARK   74  A    between atoms: _168  and  _171
REMARK   75  A    between atoms: _171  and  _172
REMARK   76  A    between atoms: _172  and  _173
REMARK   77  A    between atoms: _178  and  _180
REMARK   78  A    between atoms: _180  and  _181
REMARK   79  A    between atoms: _183  and  _185
REMARK   80  A    between atoms: _185  and  _186
REMARK   81  A    between atoms: _185  and  _188
REMARK   82  A    between atoms: _188  and  _189
REMARK   83  A    between atoms: _194  and  _195
REMARK   84  A    between atoms: _197  and  _199
REMARK   85  A    between atoms: _199  and  _200
REMARK   86  A    between atoms: _199  and  _202
REMARK   87  A    between atoms: _202  and  _203
REMARK   88  A    between atoms: _208  and  _209
REMARK   89  A    between atoms: _211  and  _213
REMARK   90  A    between atoms: _213  and  _214
REMARK   91  A    between atoms: _213  and  _216
REMARK   92  A    between atoms: _216  and  _217
REMARK   93  A    between atoms: _217  and  _218
REMARK   94  A    between atoms: _218  and  _219
REMARK   95  A    between atoms: _219  and  _220
REMARK   96  A    between atoms: _224  and  _226
REMARK   97  A    between atoms: _226  and  _227
REMARK   98  A    between atoms: _226  and  _229
REMARK   99  A    between atoms: _229  and  _230
REMARK  100  A    between atoms: _233  and  _235
REMARK  101  A    between atoms: _235  and  _236
REMARK  102  A    between atoms: _239  and  _241
REMARK  103  A    between atoms: _241  and  _242
REMARK  104  A    between atoms: _241  and  _244
REMARK  105  A    between atoms: _244  and  _245
REMARK  106  A    between atoms: _245  and  _246
REMARK  107  A    between atoms: _246  and  _247
REMARK  108  A    between atoms: _256  and  _258
REMARK  109  A    between atoms: _258  and  _259
REMARK  110  A    between atoms: _258  and  _261
REMARK  111  A    between atoms: _261  and  _262
REMARK  112  A    between atoms: _267  and  _269
REMARK  113  A    between atoms: _269  and  _270
REMARK  114  A    between atoms: _269  and  _272
REMARK  115  A    between atoms: _272  and  _273
REMARK  116  A    between atoms: _278  and  _279
REMARK  117  A    between atoms: _281  and  _283
REMARK  118  A    between atoms: _283  and  _284
REMARK  119  A    between atoms: _287  and  _289
REMARK  120  A    between atoms: _289  and  _290
REMARK  121  A    between atoms: _289  and  _292
REMARK  122  A    between atoms: _295  and  _297
REMARK  123  A    between atoms: _297  and  _298
REMARK  124  A    between atoms: _297  and  _300
REMARK  125  A    between atoms: _303  and  _305
REMARK  126  A    between atoms: _305  and  _306
REMARK  127  A    between atoms: _305  and  _308
REMARK  128  A    between atoms: _308  and  _309
REMARK  129  A    between atoms: _309  and  _310
REMARK  130  A    between atoms: _313  and  _315
REMARK  131  A    between atoms: _315  and  _316
REMARK  132  A    between atoms: _315  and  _318
REMARK  133  A    between atoms: _318  and  _319
REMARK  134  A    between atoms: _322  and  _324
REMARK  135  A    between atoms: _324  and  _325
REMARK  136  A    between atoms: _324  and  _327
REMARK  137  A    between atoms: _327  and  _328
REMARK  138  A    between atoms: _328  and  _330
REMARK  139  A    between atoms: _330  and  MN_635
REMARK  140  A    between atoms: _331  and  _333
REMARK  141  A    between atoms: _333  and  _334
REMARK  142  A    between atoms: _333  and  _336
REMARK  143  A    between atoms: _336  and  _337
REMARK  144  A    between atoms: _340  and  _342
REMARK  145  A    between atoms: _342  and  _343
REMARK  146  A    between atoms: _342  and  _345
REMARK  147  A    between atoms: _345  and  _346
REMARK  148  A    between atoms: _353  and  _354
REMARK  149  A    between atoms: _359  and  _361
REMARK  150  A    between atoms: _361  and  _362
REMARK  151  A    between atoms: _364  and  _366
REMARK  152  A    between atoms: _366  and  _367
REMARK  153  A    between atoms: _366  and  _369
REMARK  154  A    between atoms: _369  and  _370
REMARK  155  A    between atoms: _373  and  _375
REMARK  156  A    between atoms: _375  and  _376
REMARK  157  A    between atoms: _378  and  _380
REMARK  158  A    between atoms: _380  and  _381
REMARK  159  A    between atoms: _380  and  _383
REMARK  160  A    between atoms: _383  and  _384
REMARK  161  A    between atoms: _394  and  _396
REMARK  162  A    between atoms: _396  and  _397
REMARK  163  A    between atoms: _400  and  _402
REMARK  164  A    between atoms: _402  and  _403
REMARK  165  A    between atoms: _402  and  _405
REMARK  166  A    between atoms: _405  and  _406
REMARK  167  A    between atoms: _412  and  _414
REMARK  168  A    between atoms: _414  and  _415
REMARK  169  A    between atoms: _414  and  _417
REMARK  170  A    between atoms: _417  and  _418
REMARK  171  A    between atoms: _428  and  _430
REMARK  172  A    between atoms: _430  and  _431
REMARK  173  A    between atoms: _430  and  _433
REMARK  174  A    between atoms: _433  and  _434
REMARK  175  A    between atoms: _437  and  _439
REMARK  176  A    between atoms: _439  and  _440
REMARK  177  A    between atoms: _439  and  _442
REMARK  178  A    between atoms: _442  and  _443
REMARK  179  A    between atoms: _446  and  _448
REMARK  180  A    between atoms: _448  and  _449
REMARK  181  A    between atoms: _448  and  _451
REMARK  182  A    between atoms: _451  and  _452
REMARK  183  A    between atoms: _462  and  _464
REMARK  184  A    between atoms: _464  and  _465
REMARK  185  A    between atoms: _464  and  _467
REMARK  186  A    between atoms: _467  and  _468
REMARK  187  A    between atoms: _468  and  _469
REMARK  188  A    between atoms: _469  and  _470
REMARK  189  A    between atoms: _479  and  _481
REMARK  190  A    between atoms: _481  and  _482
REMARK  191  A    between atoms: _481  and  _484
REMARK  192  A    between atoms: _484  and  _485
REMARK  193  A    between atoms: _488  and  _490
REMARK  194  A    between atoms: _490  and  _491
REMARK  195  A    between atoms: _490  and  _493
REMARK  196  A    between atoms: _493  and  _494
REMARK  197  A    between atoms: _500  and  _502
REMARK  198  A    between atoms: _502  and  _503
REMARK  199  A    between atoms: _505  and  _507
REMARK  200  A    between atoms: _507  and  _508
REMARK  201  A    between atoms: _507  and  _510
REMARK  202  A    between atoms: _510  and  _511
REMARK  203  A    between atoms: _511  and  _512
REMARK  204  A    between atoms: _512  and  _513
REMARK  205  A    between atoms: _522  and  _524
REMARK  206  A    between atoms: _524  and  _525
REMARK  207  A    between atoms: _524  and  _527
REMARK  208  A    between atoms: _527  and  _528
REMARK  209  A    between atoms: _528  and  _529
REMARK  210  A    between atoms: _529  and  _530
REMARK  211  A    between atoms: _530  and  _531
REMARK  212  A    between atoms: _535  and  _537
REMARK  213  A    between atoms: _537  and  _538
REMARK  214  A    between atoms: _540  and  _542
REMARK  215  A    between atoms: _542  and  _543
REMARK  216  A    between atoms: _542  and  _545
REMARK  217  A    between atoms: _548  and  _550
REMARK  218  A    between atoms: _550  and  _551
REMARK  219  A    between atoms: _550  and  _553
REMARK  220  A    between atoms: _553  and  _554
REMARK  221  A    between atoms: _556  and  _558
REMARK  222  A    between atoms: _558  and  _559
REMARK  223  A    between atoms: _558  and  _561
REMARK  224  A    between atoms: _561  and  _562
REMARK  225  A    between atoms: _567  and  _569
REMARK  226  A    between atoms: _569  and  _570
REMARK  227  A    between atoms: _572  and  _574
REMARK  228  A    between atoms: _574  and  _575
REMARK  229  A    between atoms: _574  and  _577
REMARK  230  A    between atoms: _577  and  _578
REMARK  231  A    between atoms: _584  and  _586
REMARK  232  A    between atoms: _586  and  _587
REMARK  233  A    between atoms: _586  and  _589
REMARK  234  A    between atoms: _589  and  _590
REMARK  235  A    between atoms: _596  and  _598
REMARK  236  A    between atoms: _598  and  _599
REMARK  237  A    between atoms: _598  and  _601
REMARK  238  A    between atoms: _601  and  _602
REMARK  239  A    between atoms: _605  and  _607
REMARK  240  A    between atoms: _607  and  _608
REMARK  241  A    between atoms: _607  and  _610
REMARK  242  A    between atoms: _610  and  _611
REMARK  243  A    between atoms: _611  and  _612
REMARK  244  A    between atoms: _612  and  _613
REMARK  245  A    between atoms: _613  and  _614
REMARK  246  A    between atoms: _618  and  _620
REMARK  247  A    between atoms: _620  and  _621
REMARK  248  A    between atoms: _620  and  _623
REMARK  249  A    between atoms: _623  and  _624
REMARK  250  A    between atoms: _624  and  _625
REMARK  251  A    between atoms: _625  and  _626
REMARK                            x       y       z     vdW  Elec       q    Type
REMARK                         _______ _______ _______ _____ _____    ______ ____
ROOT
ATOM      1  O   HOH     1       2.470  16.492   4.597  0.00  0.00    +0.000 OA
ENDROOT
TORSDOF 0
REMARK  Name = ../refined-set-2016/2am4/2am4_pocket.pdb
REMARK  251 active torsions:
REMARK  status: ('A' for Active; 'I' for Inactive)
REMARK    1  A    between atoms: _1  and  _3
REMARK    2  A    between atoms: _3  and  _4
REMARK    3  A    between atoms: _3  and  _6
REMARK    4  A    between atoms: _6  and  _7
REMARK    5  A    between atoms: _10  and  _12
REMARK    6  A    between atoms: _12  and  _13
REMARK    7  A    between atoms: _12  and  _15
REMARK    8  A    between atoms: _18  and  _20
REMARK    9  A    between atoms: _20  and  _21
REMARK   10  A    between atoms: _20  and  _23
REMARK   11  A    between atoms: _23  and  _24
REMARK   12  A    between atoms: _27  and  _29
REMARK   13  A    between atoms: _29  and  _30
REMARK   14  A    between atoms: _33  and  _35
REMARK   15  A    between atoms: _35  and  _36
REMARK   16  A    between atoms: _35  and  _38
REMARK   17  A    between atoms: _38  and  _39
REMARK   18  A    between atoms: _39  and  _109
REMARK   19  A    between atoms: _40  and  _42
REMARK   20  A    between atoms: _42  and  _43
REMARK   21  A    between atoms: _42  and  _45
REMARK   22  A    between atoms: _45  and  _46
REMARK   23  A    between atoms: _49  and  _51
REMARK   24  A    between atoms: _51  and  _52
REMARK   25  A    between atoms: _51  and  _54
REMARK   26  A    between atoms: _54  and  _55
REMARK   27  A    between atoms: _55  and  _56
REMARK   28  A    between atoms: _56  and  _57
REMARK   29  A    between atoms: _66  and  _68
REMARK   30  A    between atoms: _68  and  _69
REMARK   31  A    between atoms: _68  and  _71
REMARK   32  A    between atoms: _74  and  _76
REMARK   33  A    between atoms: _76  and  _77
REMARK   34  A    between atoms: _76  and  _79
REMARK   35  A    between atoms: _79  and  _80
REMARK   36  A    between atoms: _82  and  _84
REMARK   37  A    between atoms: _84  and  _85
REMARK   38  A    between atoms: _84  and  _87
REMARK   39  A    between atoms: _87  and  _88
REMARK   40  A    between atoms: _88  and  _89
REMARK   41  A    between atoms: _94  and  _96
REMARK   42  A    between atoms: _96  and  _97
REMARK   43  A    between atoms: _96  and  _99
REMARK   44  A    between atoms: _99  and  _100
REMARK   45  A    between atoms: _103  and  _105
REMARK   46  A    between atoms: _105  and  _106
REMARK   47  A    between atoms: _105  and  _108
REMARK   48  A    between atoms: _108  and  _109
REMARK   49  A    between atoms: _110  and  _112
REMARK   50  A    between atoms: _112  and  _113
REMARK   51  A    between atoms: _115  and  _117
REMARK   52  A    between atoms: _117  and  _118
REMARK   53  A    between atoms: _117  and  _120
REMARK   54  A    between atoms: _120  and  _121
REMARK   55  A    between atoms: _124  and  _126
REMARK   56  A    between atoms: _126  and  _127
REMARK   57  A    between atoms: _126  and  _129
REMARK   58  A    between atoms: _129  and  _130
REMARK   59  A    between atoms: _130  and  _131
REMARK   60  A    between atoms: _136  and  _138
REMARK   61  A    between atoms: _138  and  _139
REMARK   62  A    between atoms: _138  and  _141
REMARK   63  A    between atoms: _141  and  _142
REMARK   64  A    between atoms: _145  and  _147
REMARK   65  A    between atoms: _147  and  _148
REMARK   66  A    between atoms: _147  and  _150
REMARK   67  A    between atoms: _150  and  _151
REMARK   68  A    between atoms: _154  and  _156
REMARK   69  A    between atoms: _156  and  _157
REMARK   70  A    between atoms: _156  and  _159
REMARK   71  A    between atoms: _159  and  _160
REMARK   72  A    between atoms: _166  and  _168
REMARK   73  A    between atoms: _168  and  _169
REMARK   74  A    between atoms: _168  and  _171
REMARK   75  A    between atoms: _171  and  _172
REMARK   76  A    between atoms: _172  and  _173
REMARK   77  A    between atoms: _178  and  _180
REMARK   78  A    between atoms: _180  and  _181
REMARK   79  A    between atoms: _183  and  _185
REMARK   80  A    between atoms: _185  and  _186
REMARK   81  A    between atoms: _185  and  _188
REMARK   82  A    between atoms: _188  and  _189
REMARK   83  A    between atoms: _194  and  _195
REMARK   84  A    between atoms: _197  and  _199
REMARK   85  A    between atoms: _199  and  _200
REMARK   86  A    between atoms: _199  and  _202
REMARK   87  A    between atoms: _202  and  _203
REMARK   88  A    between atoms: _208  and  _209
REMARK   89  A    between atoms: _211  and  _213
REMARK   90  A    between atoms: _213  and  _214
REMARK   91  A    between atoms: _213  and  _216
REMARK   92  A    between atoms: _216  and  _217
REMARK   93  A    between atoms: _217  and  _218
REMARK   94  A    between atoms: _218  and  _219
REMARK   95  A    between atoms: _219  and  _220
REMARK   96  A    between atoms: _224  and  _226
REMARK   97  A    between atoms: _226  and  _227
REMARK   98  A    between atoms: _226  and  _229
REMARK   99  A    between atoms: _229  and  _230
REMARK  100  A    between atoms: _233  and  _235
REMARK  101  A    between atoms: _235  and  _236
REMARK  102  A    between atoms: _239  and  _241
REMARK  103  A    between atoms: _241  and  _242
REMARK  104  A    between atoms: _241  and  _244
REMARK  105  A    between atoms: _244  and  _245
REMARK  106  A    between atoms: _245  and  _246
REMARK  107  A    between atoms: _246  and  _247
REMARK  108  A    between atoms: _256  and  _258
REMARK  109  A    between atoms: _258  and  _259
REMARK  110  A    between atoms: _258  and  _261
REMARK  111  A    between atoms: _261  and  _262
REMARK  112  A    between atoms: _267  and  _269
REMARK  113  A    between atoms: _269  and  _270
REMARK  114  A    between atoms: _269  and  _272
REMARK  115  A    between atoms: _272  and  _273
REMARK  116  A    between atoms: _278  and  _279
REMARK  117  A    between atoms: _281  and  _283
REMARK  118  A    between atoms: _283  and  _284
REMARK  119  A    between atoms: _287  and  _289
REMARK  120  A    between atoms: _289  and  _290
REMARK  121  A    between atoms: _289  and  _292
REMARK  122  A    between atoms: _295  and  _297
REMARK  123  A    between atoms: _297  and  _298
REMARK  124  A    between atoms: _297  and  _300
REMARK  125  A    between atoms: _303  and  _305
REMARK  126  A    between atoms: _305  and  _306
REMARK  127  A    between atoms: _305  and  _308
REMARK  128  A    between atoms: _308  and  _309
REMARK  129  A    between atoms: _309  and  _310
REMARK  130  A    between atoms: _313  and  _315
REMARK  131  A    between atoms: _315  and  _316
REMARK  132  A    between atoms: _315  and  _318
REMARK  133  A    between atoms: _318  and  _319
REMARK  134  A    between atoms: _322  and  _324
REMARK  135  A    between atoms: _324  and  _325
REMARK  136  A    between atoms: _324  and  _327
REMARK  137  A    between atoms: _327  and  _328
REMARK  138  A    between atoms: _328  and  _330
REMARK  139  A    between atoms: _330  and  MN_635
REMARK  140  A    between atoms: _331  and  _333
REMARK  141  A    between atoms: _333  and  _334
REMARK  142  A    between atoms: _333  and  _336
REMARK  143  A    between atoms: _336  and  _337
REMARK  144  A    between atoms: _340  and  _342
REMARK  145  A    between atoms: _342  and  _343
REMARK  146  A    between atoms: _342  and  _345
REMARK  147  A    between atoms: _345  and  _346
REMARK  148  A    between atoms: _353  and  _354
REMARK  149  A    between atoms: _359  and  _361
REMARK  150  A    between atoms: _361  and  _362
REMARK  151  A    between atoms: _364  and  _366
REMARK  152  A    between atoms: _366  and  _367
REMARK  153  A    between atoms: _366  and  _369
REMARK  154  A    between atoms: _369  and  _370
REMARK  155  A    between atoms: _373  and  _375
REMARK  156  A    between atoms: _375  and  _376
REMARK  157  A    between atoms: _378  and  _380
REMARK  158  A    between atoms: _380  and  _381
REMARK  159  A    between atoms: _380  and  _383
REMARK  160  A    between atoms: _383  and  _384
REMARK  161  A    between atoms: _394  and  _396
REMARK  162  A    between atoms: _396  and  _397
REMARK  163  A    between atoms: _400  and  _402
REMARK  164  A    between atoms: _402  and  _403
REMARK  165  A    between atoms: _402  and  _405
REMARK  166  A    between atoms: _405  and  _406
REMARK  167  A    between atoms: _412  and  _414
REMARK  168  A    between atoms: _414  and  _415
REMARK  169  A    between atoms: _414  and  _417
REMARK  170  A    between atoms: _417  and  _418
REMARK  171  A    between atoms: _428  and  _430
REMARK  172  A    between atoms: _430  and  _431
REMARK  173  A    between atoms: _430  and  _433
REMARK  174  A    between atoms: _433  and  _434
REMARK  175  A    between atoms: _437  and  _439
REMARK  176  A    between atoms: _439  and  _440
REMARK  177  A    between atoms: _439  and  _442
REMARK  178  A    between atoms: _442  and  _443
REMARK  179  A    between atoms: _446  and  _448
REMARK  180  A    between atoms: _448  and  _449
REMARK  181  A    between atoms: _448  and  _451
REMARK  182  A    between atoms: _451  and  _452
REMARK  183  A    between atoms: _462  and  _464
REMARK  184  A    between atoms: _464  and  _465
REMARK  185  A    between atoms: _464  and  _467
REMARK  186  A    between atoms: _467  and  _468
REMARK  187  A    between atoms: _468  and  _469
REMARK  188  A    between atoms: _469  and  _470
REMARK  189  A    between atoms: _479  and  _481
REMARK  190  A    between atoms: _481  and  _482
REMARK  191  A    between atoms: _481  and  _484
REMARK  192  A    between atoms: _484  and  _485
REMARK  193  A    between atoms: _488  and  _490
REMARK  194  A    between atoms: _490  and  _491
REMARK  195  A    between atoms: _490  and  _493
REMARK  196  A    between atoms: _493  and  _494
REMARK  197  A    between atoms: _500  and  _502
REMARK  198  A    between atoms: _502  and  _503
REMARK  199  A    between atoms: _505  and  _507
REMARK  200  A    between atoms: _507  and  _508
REMARK  201  A    between atoms: _507  and  _510
REMARK  202  A    between atoms: _510  and  _511
REMARK  203  A    between atoms: _511  and  _512
REMARK  204  A    between atoms: _512  and  _513
REMARK  205  A    between atoms: _522  and  _524
REMARK  206  A    between atoms: _524  and  _525
REMARK  207  A    between atoms: _524  and  _527
REMARK  208  A    between atoms: _527  and  _528
REMARK  209  A    between atoms: _528  and  _529
REMARK  210  A    between atoms: _529  and  _530
REMARK  211  A    between atoms: _530  and  _531
REMARK  212  A    between atoms: _535  and  _537
REMARK  213  A    between atoms: _537  and  _538
REMARK  214  A    between atoms: _540  and  _542
REMARK  215  A    between atoms: _542  and  _543
REMARK  216  A    between atoms: _542  and  _545
REMARK  217  A    between atoms: _548  and  _550
REMARK  218  A    between atoms: _550  and  _551
REMARK  219  A    between atoms: _550  and  _553
REMARK  220  A    between atoms: _553  and  _554
REMARK  221  A    between atoms: _556  and  _558
REMARK  222  A    between atoms: _558  and  _559
REMARK  223  A    between atoms: _558  and  _561
REMARK  224  A    between atoms: _561  and  _562
REMARK  225  A    between atoms: _567  and  _569
REMARK  226  A    between atoms: _569  and  _570
REMARK  227  A    between atoms: _572  and  _574
REMARK  228  A    between atoms: _574  and  _575
REMARK  229  A    between atoms: _574  and  _577
REMARK  230  A    between atoms: _577  and  _578
REMARK  231  A    between atoms: _584  and  _586
REMARK  232  A    between atoms: _586  and  _587
REMARK  233  A    between atoms: _586  and  _589
REMARK  234  A    between atoms: _589  and  _590
REMARK  235  A    between atoms: _596  and  _598
REMARK  236  A    between atoms: _598  and  _599
REMARK  237  A    between atoms: _598  and  _601
REMARK  238  A    between atoms: _601  and  _602
REMARK  239  A    between atoms: _605  and  _607
REMARK  240  A    between atoms: _607  and  _608
REMARK  241  A    between atoms: _607  and  _610
REMARK  242  A    between atoms: _610  and  _611
REMARK  243  A    between atoms: _611  and  _612
REMARK  244  A    between atoms: _612  and  _613
REMARK  245  A    between atoms: _613  and  _614
REMARK  246  A    between atoms: _618  and  _620
REMARK  247  A    between atoms: _620  and  _621
REMARK  248  A    between atoms: _620  and  _623
REMARK  249  A    between atoms: _623  and  _624
REMARK  250  A    between atoms: _624  and  _625
REMARK  251  A    between atoms: _625  and  _626
REMARK                            x       y       z     vdW  Elec       q    Type
REMARK                         _______ _______ _______ _____ _____    ______ ____
ROOT
ATOM      1  O   HOH     1       4.904  20.230   4.170  0.00  0.00    +0.000 OA
ENDROOT
TORSDOF 0
REMARK  Name = ../refined-set-2016/2am4/2am4_pocket.pdb
REMARK  251 active torsions:
REMARK  status: ('A' for Active; 'I' for Inactive)
REMARK    1  A    between atoms: _1  and  _3
REMARK    2  A    between atoms: _3  and  _4
REMARK    3  A    between atoms: _3  and  _6
REMARK    4  A    between atoms: _6  and  _7
REMARK    5  A    between atoms: _10  and  _12
REMARK    6  A    between atoms: _12  and  _13
REMARK    7  A    between atoms: _12  and  _15
REMARK    8  A    between atoms: _18  and  _20
REMARK    9  A    between atoms: _20  and  _21
REMARK   10  A    between atoms: _20  and  _23
REMARK   11  A    between atoms: _23  and  _24
REMARK   12  A    between atoms: _27  and  _29
REMARK   13  A    between atoms: _29  and  _30
REMARK   14  A    between atoms: _33  and  _35
REMARK   15  A    between atoms: _35  and  _36
REMARK   16  A    between atoms: _35  and  _38
REMARK   17  A    between atoms: _38  and  _39
REMARK   18  A    between atoms: _39  and  _109
REMARK   19  A    between atoms: _40  and  _42
REMARK   20  A    between atoms: _42  and  _43
REMARK   21  A    between atoms: _42  and  _45
REMARK   22  A    between atoms: _45  and  _46
REMARK   23  A    between atoms: _49  and  _51
REMARK   24  A    between atoms: _51  and  _52
REMARK   25  A    between atoms: _51  and  _54
REMARK   26  A    between atoms: _54  and  _55
REMARK   27  A    between atoms: _55  and  _56
REMARK   28  A    between atoms: _56  and  _57
REMARK   29  A    between atoms: _66  and  _68
REMARK   30  A    between atoms: _68  and  _69
REMARK   31  A    between atoms: _68  and  _71
REMARK   32  A    between atoms: _74  and  _76
REMARK   33  A    between atoms: _76  and  _77
REMARK   34  A    between atoms: _76  and  _79
REMARK   35  A    between atoms: _79  and  _80
REMARK   36  A    between atoms: _82  and  _84
REMARK   37  A    between atoms: _84  and  _85
REMARK   38  A    between atoms: _84  and  _87
REMARK   39  A    between atoms: _87  and  _88
REMARK   40  A    between atoms: _88  and  _89
REMARK   41  A    between atoms: _94  and  _96
REMARK   42  A    between atoms: _96  and  _97
REMARK   43  A    between atoms: _96  and  _99
REMARK   44  A    between atoms: _99  and  _100
REMARK   45  A    between atoms: _103  and  _105
REMARK   46  A    between atoms: _105  and  _106
REMARK   47  A    between atoms: _105  and  _108
REMARK   48  A    between atoms: _108  and  _109
REMARK   49  A    between atoms: _110  and  _112
REMARK   50  A    between atoms: _112  and  _113
REMARK   51  A    between atoms: _115  and  _117
REMARK   52  A    between atoms: _117  and  _118
REMARK   53  A    between atoms: _117  and  _120
REMARK   54  A    between atoms: _120  and  _121
REMARK   55  A    between atoms: _124  and  _126
REMARK   56  A    between atoms: _126  and  _127
REMARK   57  A    between atoms: _126  and  _129
REMARK   58  A    between atoms: _129  and  _130
REMARK   59  A    between atoms: _130  and  _131
REMARK   60  A    between atoms: _136  and  _138
REMARK   61  A    between atoms: _138  and  _139
REMARK   62  A    between atoms: _138  and  _141
REMARK   63  A    between atoms: _141  and  _142
REMARK   64  A    between atoms: _145  and  _147
REMARK   65  A    between atoms: _147  and  _148
REMARK   66  A    between atoms: _147  and  _150
REMARK   67  A    between atoms: _150  and  _151
REMARK   68  A    between atoms: _154  and  _156
REMARK   69  A    between atoms: _156  and  _157
REMARK   70  A    between atoms: _156  and  _159
REMARK   71  A    between atoms: _159  and  _160
REMARK   72  A    between atoms: _166  and  _168
REMARK   73  A    between atoms: _168  and  _169
REMARK   74  A    between atoms: _168  and  _171
REMARK   75  A    between atoms: _171  and  _172
REMARK   76  A    between atoms: _172  and  _173
REMARK   77  A    between atoms: _178  and  _180
REMARK   78  A    between atoms: _180  and  _181
REMARK   79  A    between atoms: _183  and  _185
REMARK   80  A    between atoms: _185  and  _186
REMARK   81  A    between atoms: _185  and  _188
REMARK   82  A    between atoms: _188  and  _189
REMARK   83  A    between atoms: _194  and  _195
REMARK   84  A    between atoms: _197  and  _199
REMARK   85  A    between atoms: _199  and  _200
REMARK   86  A    between atoms: _199  and  _202
REMARK   87  A    between atoms: _202  and  _203
REMARK   88  A    between atoms: _208  and  _209
REMARK   89  A    between atoms: _211  and  _213
REMARK   90  A    between atoms: _213  and  _214
REMARK   91  A    between atoms: _213  and  _216
REMARK   92  A    between atoms: _216  and  _217
REMARK   93  A    between atoms: _217  and  _218
REMARK   94  A    between atoms: _218  and  _219
REMARK   95  A    between atoms: _219  and  _220
REMARK   96  A    between atoms: _224  and  _226
REMARK   97  A    between atoms: _226  and  _227
REMARK   98  A    between atoms: _226  and  _229
REMARK   99  A    between atoms: _229  and  _230
REMARK  100  A    between atoms: _233  and  _235
REMARK  101  A    between atoms: _235  and  _236
REMARK  102  A    between atoms: _239  and  _241
REMARK  103  A    between atoms: _241  and  _242
REMARK  104  A    between atoms: _241  and  _244
REMARK  105  A    between atoms: _244  and  _245
REMARK  106  A    between atoms: _245  and  _246
REMARK  107  A    between atoms: _246  and  _247
REMARK  108  A    between atoms: _256  and  _258
REMARK  109  A    between atoms: _258  and  _259
REMARK  110  A    between atoms: _258  and  _261
REMARK  111  A    between atoms: _261  and  _262
REMARK  112  A    between atoms: _267  and  _269
REMARK  113  A    between atoms: _269  and  _270
REMARK  114  A    between atoms: _269  and  _272
REMARK  115  A    between atoms: _272  and  _273
REMARK  116  A    between atoms: _278  and  _279
REMARK  117  A    between atoms: _281  and  _283
REMARK  118  A    between atoms: _283  and  _284
REMARK  119  A    between atoms: _287  and  _289
REMARK  120  A    between atoms: _289  and  _290
REMARK  121  A    between atoms: _289  and  _292
REMARK  122  A    between atoms: _295  and  _297
REMARK  123  A    between atoms: _297  and  _298
REMARK  124  A    between atoms: _297  and  _300
REMARK  125  A    between atoms: _303  and  _305
REMARK  126  A    between atoms: _305  and  _306
REMARK  127  A    between atoms: _305  and  _308
REMARK  128  A    between atoms: _308  and  _309
REMARK  129  A    between atoms: _309  and  _310
REMARK  130  A    between atoms: _313  and  _315
REMARK  131  A    between atoms: _315  and  _316
REMARK  132  A    between atoms: _315  and  _318
REMARK  133  A    between atoms: _318  and  _319
REMARK  134  A    between atoms: _322  and  _324
REMARK  135  A    between atoms: _324  and  _325
REMARK  136  A    between atoms: _324  and  _327
REMARK  137  A    between atoms: _327  and  _328
REMARK  138  A    between atoms: _328  and  _330
REMARK  139  A    between atoms: _330  and  MN_635
REMARK  140  A    between atoms: _331  and  _333
REMARK  141  A    between atoms: _333  and  _334
REMARK  142  A    between atoms: _333  and  _336
REMARK  143  A    between atoms: _336  and  _337
REMARK  144  A    between atoms: _340  and  _342
REMARK  145  A    between atoms: _342  and  _343
REMARK  146  A    between atoms: _342  and  _345
REMARK  147  A    between atoms: _345  and  _346
REMARK  148  A    between atoms: _353  and  _354
REMARK  149  A    between atoms: _359  and  _361
REMARK  150  A    between atoms: _361  and  _362
REMARK  151  A    between atoms: _364  and  _366
REMARK  152  A    between atoms: _366  and  _367
REMARK  153  A    between atoms: _366  and  _369
REMARK  154  A    between atoms: _369  and  _370
REMARK  155  A    between atoms: _373  and  _375
REMARK  156  A    between atoms: _375  and  _376
REMARK  157  A    between atoms: _378  and  _380
REMARK  158  A    between atoms: _380  and  _381
REMARK  159  A    between atoms: _380  and  _383
REMARK  160  A    between atoms: _383  and  _384
REMARK  161  A    between atoms: _394  and  _396
REMARK  162  A    between atoms: _396  and  _397
REMARK  163  A    between atoms: _400  and  _402
REMARK  164  A    between atoms: _402  and  _403
REMARK  165  A    between atoms: _402  and  _405
REMARK  166  A    between atoms: _405  and  _406
REMARK  167  A    between atoms: _412  and  _414
REMARK  168  A    between atoms: _414  and  _415
REMARK  169  A    between atoms: _414  and  _417
REMARK  170  A    between atoms: _417  and  _418
REMARK  171  A    between atoms: _428  and  _430
REMARK  172  A    between atoms: _430  and  _431
REMARK  173  A    between atoms: _430  and  _433
REMARK  174  A    between atoms: _433  and  _434
REMARK  175  A    between atoms: _437  and  _439
REMARK  176  A    between atoms: _439  and  _440
REMARK  177  A    between atoms: _439  and  _442
REMARK  178  A    between atoms: _442  and  _443
REMARK  179  A    between atoms: _446  and  _448
REMARK  180  A    between atoms: _448  and  _449
REMARK  181  A    between atoms: _448  and  _451
REMARK  182  A    between atoms: _451  and  _452
REMARK  183  A    between atoms: _462  and  _464
REMARK  184  A    between atoms: _464  and  _465
REMARK  185  A    between atoms: _464  and  _467
REMARK  186  A    between atoms: _467  and  _468
REMARK  187  A    between atoms: _468  and  _469
REMARK  188  A    between atoms: _469  and  _470
REMARK  189  A    between atoms: _479  and  _481
REMARK  190  A    between atoms: _481  and  _482
REMARK  191  A    between atoms: _481  and  _484
REMARK  192  A    between atoms: _484  and  _485
REMARK  193  A    between atoms: _488  and  _490
REMARK  194  A    between atoms: _490  and  _491
REMARK  195  A    between atoms: _490  and  _493
REMARK  196  A    between atoms: _493  and  _494
REMARK  197  A    between atoms: _500  and  _502
REMARK  198  A    between atoms: _502  and  _503
REMARK  199  A    between atoms: _505  and  _507
REMARK  200  A    between atoms: _507  and  _508
REMARK  201  A    between atoms: _507  and  _510
REMARK  202  A    between atoms: _510  and  _511
REMARK  203  A    between atoms: _511  and  _512
REMARK  204  A    between atoms: _512  and  _513
REMARK  205  A    between atoms: _522  and  _524
REMARK  206  A    between atoms: _524  and  _525
REMARK  207  A    between atoms: _524  and  _527
REMARK  208  A    between atoms: _527  and  _528
REMARK  209  A    between atoms: _528  and  _529
REMARK  210  A    between atoms: _529  and  _530
REMARK  211  A    between atoms: _530  and  _531
REMARK  212  A    between atoms: _535  and  _537
REMARK  213  A    between atoms: _537  and  _538
REMARK  214  A    between atoms: _540  and  _542
REMARK  215  A    between atoms: _542  and  _543
REMARK  216  A    between atoms: _542  and  _545
REMARK  217  A    between atoms: _548  and  _550
REMARK  218  A    between atoms: _550  and  _551
REMARK  219  A    between atoms: _550  and  _553
REMARK  220  A    between atoms: _553  and  _554
REMARK  221  A    between atoms: _556  and  _558
REMARK  222  A    between atoms: _558  and  _559
REMARK  223  A    between atoms: _558  and  _561
REMARK  224  A    between atoms: _561  and  _562
REMARK  225  A    between atoms: _567  and  _569
REMARK  226  A    between atoms: _569  and  _570
REMARK  227  A    between atoms: _572  and  _574
REMARK  228  A    between atoms: _574  and  _575
REMARK  229  A    between atoms: _574  and  _577
REMARK  230  A    between atoms: _577  and  _578
REMARK  231  A    between atoms: _584  and  _586
REMARK  232  A    between atoms: _586  and  _587
REMARK  233  A    between atoms: _586  and  _589
REMARK  234  A    between atoms: _589  and  _590
REMARK  235  A    between atoms: _596  and  _598
REMARK  236  A    between atoms: _598  and  _599
REMARK  237  A    between atoms: _598  and  _601
REMARK  238  A    between atoms: _601  and  _602
REMARK  239  A    between atoms: _605  and  _607
REMARK  240  A    between atoms: _607  and  _608
REMARK  241  A    between atoms: _607  and  _610
REMARK  242  A    between atoms: _610  and  _611
REMARK  243  A    between atoms: _611  and  _612
REMARK  244  A    between atoms: _612  and  _613
REMARK  245  A    between atoms: _613  and  _614
REMARK  246  A    between atoms: _618  and  _620
REMARK  247  A    between atoms: _620  and  _621
REMARK  248  A    between atoms: _620  and  _623
REMARK  249  A    between atoms: _623  and  _624
REMARK  250  A    between atoms: _624  and  _625
REMARK  251  A    between atoms: _625  and  _626
REMARK                            x       y       z     vdW  Elec       q    Type
REMARK                         _______ _______ _______ _____ _____    ______ ____
ROOT
ATOM      1  O   HOH     1       7.538  19.606   4.331  0.00  0.00    +0.000 OA
ENDROOT
TORSDOF 0
REMARK  Name = ../refined-set-2016/2am4/2am4_pocket.pdb
REMARK  251 active torsions:
REMARK  status: ('A' for Active; 'I' for Inactive)
REMARK    1  A    between atoms: _1  and  _3
REMARK    2  A    between atoms: _3  and  _4
REMARK    3  A    between atoms: _3  and  _6
REMARK    4  A    between atoms: _6  and  _7
REMARK    5  A    between atoms: _10  and  _12
REMARK    6  A    between atoms: _12  and  _13
REMARK    7  A    between atoms: _12  and  _15
REMARK    8  A    between atoms: _18  and  _20
REMARK    9  A    between atoms: _20  and  _21
REMARK   10  A    between atoms: _20  and  _23
REMARK   11  A    between atoms: _23  and  _24
REMARK   12  A    between atoms: _27  and  _29
REMARK   13  A    between atoms: _29  and  _30
REMARK   14  A    between atoms: _33  and  _35
REMARK   15  A    between atoms: _35  and  _36
REMARK   16  A    between atoms: _35  and  _38
REMARK   17  A    between atoms: _38  and  _39
REMARK   18  A    between atoms: _39  and  _109
REMARK   19  A    between atoms: _40  and  _42
REMARK   20  A    between atoms: _42  and  _43
REMARK   21  A    between atoms: _42  and  _45
REMARK   22  A    between atoms: _45  and  _46
REMARK   23  A    between atoms: _49  and  _51
REMARK   24  A    between atoms: _51  and  _52
REMARK   25  A    between atoms: _51  and  _54
REMARK   26  A    between atoms: _54  and  _55
REMARK   27  A    between atoms: _55  and  _56
REMARK   28  A    between atoms: _56  and  _57
REMARK   29  A    between atoms: _66  and  _68
REMARK   30  A    between atoms: _68  and  _69
REMARK   31  A    between atoms: _68  and  _71
REMARK   32  A    between atoms: _74  and  _76
REMARK   33  A    between atoms: _76  and  _77
REMARK   34  A    between atoms: _76  and  _79
REMARK   35  A    between atoms: _79  and  _80
REMARK   36  A    between atoms: _82  and  _84
REMARK   37  A    between atoms: _84  and  _85
REMARK   38  A    between atoms: _84  and  _87
REMARK   39  A    between atoms: _87  and  _88
REMARK   40  A    between atoms: _88  and  _89
REMARK   41  A    between atoms: _94  and  _96
REMARK   42  A    between atoms: _96  and  _97
REMARK   43  A    between atoms: _96  and  _99
REMARK   44  A    between atoms: _99  and  _100
REMARK   45  A    between atoms: _103  and  _105
REMARK   46  A    between atoms: _105  and  _106
REMARK   47  A    between atoms: _105  and  _108
REMARK   48  A    between atoms: _108  and  _109
REMARK   49  A    between atoms: _110  and  _112
REMARK   50  A    between atoms: _112  and  _113
REMARK   51  A    between atoms: _115  and  _117
REMARK   52  A    between atoms: _117  and  _118
REMARK   53  A    between atoms: _117  and  _120
REMARK   54  A    between atoms: _120  and  _121
REMARK   55  A    between atoms: _124  and  _126
REMARK   56  A    between atoms: _126  and  _127
REMARK   57  A    between atoms: _126  and  _129
REMARK   58  A    between atoms: _129  and  _130
REMARK   59  A    between atoms: _130  and  _131
REMARK   60  A    between atoms: _136  and  _138
REMARK   61  A    between atoms: _138  and  _139
REMARK   62  A    between atoms: _138  and  _141
REMARK   63  A    between atoms: _141  and  _142
REMARK   64  A    between atoms: _145  and  _147
REMARK   65  A    between atoms: _147  and  _148
REMARK   66  A    between atoms: _147  and  _150
REMARK   67  A    between atoms: _150  and  _151
REMARK   68  A    between atoms: _154  and  _156
REMARK   69  A    between atoms: _156  and  _157
REMARK   70  A    between atoms: _156  and  _159
REMARK   71  A    between atoms: _159  and  _160
REMARK   72  A    between atoms: _166  and  _168
REMARK   73  A    between atoms: _168  and  _169
REMARK   74  A    between atoms: _168  and  _171
REMARK   75  A    between atoms: _171  and  _172
REMARK   76  A    between atoms: _172  and  _173
REMARK   77  A    between atoms: _178  and  _180
REMARK   78  A    between atoms: _180  and  _181
REMARK   79  A    between atoms: _183  and  _185
REMARK   80  A    between atoms: _185  and  _186
REMARK   81  A    between atoms: _185  and  _188
REMARK   82  A    between atoms: _188  and  _189
REMARK   83  A    between atoms: _194  and  _195
REMARK   84  A    between atoms: _197  and  _199
REMARK   85  A    between atoms: _199  and  _200
REMARK   86  A    between atoms: _199  and  _202
REMARK   87  A    between atoms: _202  and  _203
REMARK   88  A    between atoms: _208  and  _209
REMARK   89  A    between atoms: _211  and  _213
REMARK   90  A    between atoms: _213  and  _214
REMARK   91  A    between atoms: _213  and  _216
REMARK   92  A    between atoms: _216  and  _217
REMARK   93  A    between atoms: _217  and  _218
REMARK   94  A    between atoms: _218  and  _219
REMARK   95  A    between atoms: _219  and  _220
REMARK   96  A    between atoms: _224  and  _226
REMARK   97  A    between atoms: _226  and  _227
REMARK   98  A    between atoms: _226  and  _229
REMARK   99  A    between atoms: _229  and  _230
REMARK  100  A    between atoms: _233  and  _235
REMARK  101  A    between atoms: _235  and  _236
REMARK  102  A    between atoms: _239  and  _241
REMARK  103  A    between atoms: _241  and  _242
REMARK  104  A    between atoms: _241  and  _244
REMARK  105  A    between atoms: _244  and  _245
REMARK  106  A    between atoms: _245  and  _246
REMARK  107  A    between atoms: _246  and  _247
REMARK  108  A    between atoms: _256  and  _258
REMARK  109  A    between atoms: _258  and  _259
REMARK  110  A    between atoms: _258  and  _261
REMARK  111  A    between atoms: _261  and  _262
REMARK  112  A    between atoms: _267  and  _269
REMARK  113  A    between atoms: _269  and  _270
REMARK  114  A    between atoms: _269  and  _272
REMARK  115  A    between atoms: _272  and  _273
REMARK  116  A    between atoms: _278  and  _279
REMARK  117  A    between atoms: _281  and  _283
REMARK  118  A    between atoms: _283  and  _284
REMARK  119  A    between atoms: _287  and  _289
REMARK  120  A    between atoms: _289  and  _290
REMARK  121  A    between atoms: _289  and  _292
REMARK  122  A    between atoms: _295  and  _297
REMARK  123  A    between atoms: _297  and  _298
REMARK  124  A    between atoms: _297  and  _300
REMARK  125  A    between atoms: _303  and  _305
REMARK  126  A    between atoms: _305  and  _306
REMARK  127  A    between atoms: _305  and  _308
REMARK  128  A    between atoms: _308  and  _309
REMARK  129  A    between atoms: _309  and  _310
REMARK  130  A    between atoms: _313  and  _315
REMARK  131  A    between atoms: _315  and  _316
REMARK  132  A    between atoms: _315  and  _318
REMARK  133  A    between atoms: _318  and  _319
REMARK  134  A    between atoms: _322  and  _324
REMARK  135  A    between atoms: _324  and  _325
REMARK  136  A    between atoms: _324  and  _327
REMARK  137  A    between atoms: _327  and  _328
REMARK  138  A    between atoms: _328  and  _330
REMARK  139  A    between atoms: _330  and  MN_635
REMARK  140  A    between atoms: _331  and  _333
REMARK  141  A    between atoms: _333  and  _334
REMARK  142  A    between atoms: _333  and  _336
REMARK  143  A    between atoms: _336  and  _337
REMARK  144  A    between atoms: _340  and  _342
REMARK  145  A    between atoms: _342  and  _343
REMARK  146  A    between atoms: _342  and  _345
REMARK  147  A    between atoms: _345  and  _346
REMARK  148  A    between atoms: _353  and  _354
REMARK  149  A    between atoms: _359  and  _361
REMARK  150  A    between atoms: _361  and  _362
REMARK  151  A    between atoms: _364  and  _366
REMARK  152  A    between atoms: _366  and  _367
REMARK  153  A    between atoms: _366  and  _369
REMARK  154  A    between atoms: _369  and  _370
REMARK  155  A    between atoms: _373  and  _375
REMARK  156  A    between atoms: _375  and  _376
REMARK  157  A    between atoms: _378  and  _380
REMARK  158  A    between atoms: _380  and  _381
REMARK  159  A    between atoms: _380  and  _383
REMARK  160  A    between atoms: _383  and  _384
REMARK  161  A    between atoms: _394  and  _396
REMARK  162  A    between atoms: _396  and  _397
REMARK  163  A    between atoms: _400  and  _402
REMARK  164  A    between atoms: _402  and  _403
REMARK  165  A    between atoms: _402  and  _405
REMARK  166  A    between atoms: _405  and  _406
REMARK  167  A    between atoms: _412  and  _414
REMARK  168  A    between atoms: _414  and  _415
REMARK  169  A    between atoms: _414  and  _417
REMARK  170  A    between atoms: _417  and  _418
REMARK  171  A    between atoms: _428  and  _430
REMARK  172  A    between atoms: _430  and  _431
REMARK  173  A    between atoms: _430  and  _433
REMARK  174  A    between atoms: _433  and  _434
REMARK  175  A    between atoms: _437  and  _439
REMARK  176  A    between atoms: _439  and  _440
REMARK  177  A    between atoms: _439  and  _442
REMARK  178  A    between atoms: _442  and  _443
REMARK  179  A    between atoms: _446  and  _448
REMARK  180  A    between atoms: _448  and  _449
REMARK  181  A    between atoms: _448  and  _451
REMARK  182  A    between atoms: _451  and  _452
REMARK  183  A    between atoms: _462  and  _464
REMARK  184  A    between atoms: _464  and  _465
REMARK  185  A    between atoms: _464  and  _467
REMARK  186  A    between atoms: _467  and  _468
REMARK  187  A    between atoms: _468  and  _469
REMARK  188  A    between atoms: _469  and  _470
REMARK  189  A    between atoms: _479  and  _481
REMARK  190  A    between atoms: _481  and  _482
REMARK  191  A    between atoms: _481  and  _484
REMARK  192  A    between atoms: _484  and  _485
REMARK  193  A    between atoms: _488  and  _490
REMARK  194  A    between atoms: _490  and  _491
REMARK  195  A    between atoms: _490  and  _493
REMARK  196  A    between atoms: _493  and  _494
REMARK  197  A    between atoms: _500  and  _502
REMARK  198  A    between atoms: _502  and  _503
REMARK  199  A    between atoms: _505  and  _507
REMARK  200  A    between atoms: _507  and  _508
REMARK  201  A    between atoms: _507  and  _510
REMARK  202  A    between atoms: _510  and  _511
REMARK  203  A    between atoms: _511  and  _512
REMARK  204  A    between atoms: _512  and  _513
REMARK  205  A    between atoms: _522  and  _524
REMARK  206  A    between atoms: _524  and  _525
REMARK  207  A    between atoms: _524  and  _527
REMARK  208  A    between atoms: _527  and  _528
REMARK  209  A    between atoms: _528  and  _529
REMARK  210  A    between atoms: _529  and  _530
REMARK  211  A    between atoms: _530  and  _531
REMARK  212  A    between atoms: _535  and  _537
REMARK  213  A    between atoms: _537  and  _538
REMARK  214  A    between atoms: _540  and  _542
REMARK  215  A    between atoms: _542  and  _543
REMARK  216  A    between atoms: _542  and  _545
REMARK  217  A    between atoms: _548  and  _550
REMARK  218  A    between atoms: _550  and  _551
REMARK  219  A    between atoms: _550  and  _553
REMARK  220  A    between atoms: _553  and  _554
REMARK  221  A    between atoms: _556  and  _558
REMARK  222  A    between atoms: _558  and  _559
REMARK  223  A    between atoms: _558  and  _561
REMARK  224  A    between atoms: _561  and  _562
REMARK  225  A    between atoms: _567  and  _569
REMARK  226  A    between atoms: _569  and  _570
REMARK  227  A    between atoms: _572  and  _574
REMARK  228  A    between atoms: _574  and  _575
REMARK  229  A    between atoms: _574  and  _577
REMARK  230  A    between atoms: _577  and  _578
REMARK  231  A    between atoms: _584  and  _586
REMARK  232  A    between atoms: _586  and  _587
REMARK  233  A    between atoms: _586  and  _589
REMARK  234  A    between atoms: _589  and  _590
REMARK  235  A    between atoms: _596  and  _598
REMARK  236  A    between atoms: _598  and  _599
REMARK  237  A    between atoms: _598  and  _601
REMARK  238  A    between atoms: _601  and  _602
REMARK  239  A    between atoms: _605  and  _607
REMARK  240  A    between atoms: _607  and  _608
REMARK  241  A    between atoms: _607  and  _610
REMARK  242  A    between atoms: _610  and  _611
REMARK  243  A    between atoms: _611  and  _612
REMARK  244  A    between atoms: _612  and  _613
REMARK  245  A    between atoms: _613  and  _614
REMARK  246  A    between atoms: _618  and  _620
REMARK  247  A    between atoms: _620  and  _621
REMARK  248  A    between atoms: _620  and  _623
REMARK  249  A    between atoms: _623  and  _624
REMARK  250  A    between atoms: _624  and  _625
REMARK  251  A    between atoms: _625  and  _626
REMARK                            x       y       z     vdW  Elec       q    Type
REMARK                         _______ _______ _______ _____ _____    ______ ____
ROOT
ATOM      1  O   HOH     1       0.360  17.207  19.127  0.00  0.00    +0.000 OA
ENDROOT
TORSDOF 0
REMARK  Name = ../refined-set-2016/2am4/2am4_pocket.pdb
REMARK  251 active torsions:
REMARK  status: ('A' for Active; 'I' for Inactive)
REMARK    1  A    between atoms: _1  and  _3
REMARK    2  A    between atoms: _3  and  _4
REMARK    3  A    between atoms: _3  and  _6
REMARK    4  A    between atoms: _6  and  _7
REMARK    5  A    between atoms: _10  and  _12
REMARK    6  A    between atoms: _12  and  _13
REMARK    7  A    between atoms: _12  and  _15
REMARK    8  A    between atoms: _18  and  _20
REMARK    9  A    between atoms: _20  and  _21
REMARK   10  A    between atoms: _20  and  _23
REMARK   11  A    between atoms: _23  and  _24
REMARK   12  A    between atoms: _27  and  _29
REMARK   13  A    between atoms: _29  and  _30
REMARK   14  A    between atoms: _33  and  _35
REMARK   15  A    between atoms: _35  and  _36
REMARK   16  A    between atoms: _35  and  _38
REMARK   17  A    between atoms: _38  and  _39
REMARK   18  A    between atoms: _39  and  _109
REMARK   19  A    between atoms: _40  and  _42
REMARK   20  A    between atoms: _42  and  _43
REMARK   21  A    between atoms: _42  and  _45
REMARK   22  A    between atoms: _45  and  _46
REMARK   23  A    between atoms: _49  and  _51
REMARK   24  A    between atoms: _51  and  _52
REMARK   25  A    between atoms: _51  and  _54
REMARK   26  A    between atoms: _54  and  _55
REMARK   27  A    between atoms: _55  and  _56
REMARK   28  A    between atoms: _56  and  _57
REMARK   29  A    between atoms: _66  and  _68
REMARK   30  A    between atoms: _68  and  _69
REMARK   31  A    between atoms: _68  and  _71
REMARK   32  A    between atoms: _74  and  _76
REMARK   33  A    between atoms: _76  and  _77
REMARK   34  A    between atoms: _76  and  _79
REMARK   35  A    between atoms: _79  and  _80
REMARK   36  A    between atoms: _82  and  _84
REMARK   37  A    between atoms: _84  and  _85
REMARK   38  A    between atoms: _84  and  _87
REMARK   39  A    between atoms: _87  and  _88
REMARK   40  A    between atoms: _88  and  _89
REMARK   41  A    between atoms: _94  and  _96
REMARK   42  A    between atoms: _96  and  _97
REMARK   43  A    between atoms: _96  and  _99
REMARK   44  A    between atoms: _99  and  _100
REMARK   45  A    between atoms: _103  and  _105
REMARK   46  A    between atoms: _105  and  _106
REMARK   47  A    between atoms: _105  and  _108
REMARK   48  A    between atoms: _108  and  _109
REMARK   49  A    between atoms: _110  and  _112
REMARK   50  A    between atoms: _112  and  _113
REMARK   51  A    between atoms: _115  and  _117
REMARK   52  A    between atoms: _117  and  _118
REMARK   53  A    between atoms: _117  and  _120
REMARK   54  A    between atoms: _120  and  _121
REMARK   55  A    between atoms: _124  and  _126
REMARK   56  A    between atoms: _126  and  _127
REMARK   57  A    between atoms: _126  and  _129
REMARK   58  A    between atoms: _129  and  _130
REMARK   59  A    between atoms: _130  and  _131
REMARK   60  A    between atoms: _136  and  _138
REMARK   61  A    between atoms: _138  and  _139
REMARK   62  A    between atoms: _138  and  _141
REMARK   63  A    between atoms: _141  and  _142
REMARK   64  A    between atoms: _145  and  _147
REMARK   65  A    between atoms: _147  and  _148
REMARK   66  A    between atoms: _147  and  _150
REMARK   67  A    between atoms: _150  and  _151
REMARK   68  A    between atoms: _154  and  _156
REMARK   69  A    between atoms: _156  and  _157
REMARK   70  A    between atoms: _156  and  _159
REMARK   71  A    between atoms: _159  and  _160
REMARK   72  A    between atoms: _166  and  _168
REMARK   73  A    between atoms: _168  and  _169
REMARK   74  A    between atoms: _168  and  _171
REMARK   75  A    between atoms: _171  and  _172
REMARK   76  A    between atoms: _172  and  _173
REMARK   77  A    between atoms: _178  and  _180
REMARK   78  A    between atoms: _180  and  _181
REMARK   79  A    between atoms: _183  and  _185
REMARK   80  A    between atoms: _185  and  _186
REMARK   81  A    between atoms: _185  and  _188
REMARK   82  A    between atoms: _188  and  _189
REMARK   83  A    between atoms: _194  and  _195
REMARK   84  A    between atoms: _197  and  _199
REMARK   85  A    between atoms: _199  and  _200
REMARK   86  A    between atoms: _199  and  _202
REMARK   87  A    between atoms: _202  and  _203
REMARK   88  A    between atoms: _208  and  _209
REMARK   89  A    between atoms: _211  and  _213
REMARK   90  A    between atoms: _213  and  _214
REMARK   91  A    between atoms: _213  and  _216
REMARK   92  A    between atoms: _216  and  _217
REMARK   93  A    between atoms: _217  and  _218
REMARK   94  A    between atoms: _218  and  _219
REMARK   95  A    between atoms: _219  and  _220
REMARK   96  A    between atoms: _224  and  _226
REMARK   97  A    between atoms: _226  and  _227
REMARK   98  A    between atoms: _226  and  _229
REMARK   99  A    between atoms: _229  and  _230
REMARK  100  A    between atoms: _233  and  _235
REMARK  101  A    between atoms: _235  and  _236
REMARK  102  A    between atoms: _239  and  _241
REMARK  103  A    between atoms: _241  and  _242
REMARK  104  A    between atoms: _241  and  _244
REMARK  105  A    between atoms: _244  and  _245
REMARK  106  A    between atoms: _245  and  _246
REMARK  107  A    between atoms: _246  and  _247
REMARK  108  A    between atoms: _256  and  _258
REMARK  109  A    between atoms: _258  and  _259
REMARK  110  A    between atoms: _258  and  _261
REMARK  111  A    between atoms: _261  and  _262
REMARK  112  A    between atoms: _267  and  _269
REMARK  113  A    between atoms: _269  and  _270
REMARK  114  A    between atoms: _269  and  _272
REMARK  115  A    between atoms: _272  and  _273
REMARK  116  A    between atoms: _278  and  _279
REMARK  117  A    between atoms: _281  and  _283
REMARK  118  A    between atoms: _283  and  _284
REMARK  119  A    between atoms: _287  and  _289
REMARK  120  A    between atoms: _289  and  _290
REMARK  121  A    between atoms: _289  and  _292
REMARK  122  A    between atoms: _295  and  _297
REMARK  123  A    between atoms: _297  and  _298
REMARK  124  A    between atoms: _297  and  _300
REMARK  125  A    between atoms: _303  and  _305
REMARK  126  A    between atoms: _305  and  _306
REMARK  127  A    between atoms: _305  and  _308
REMARK  128  A    between atoms: _308  and  _309
REMARK  129  A    between atoms: _309  and  _310
REMARK  130  A    between atoms: _313  and  _315
REMARK  131  A    between atoms: _315  and  _316
REMARK  132  A    between atoms: _315  and  _318
REMARK  133  A    between atoms: _318  and  _319
REMARK  134  A    between atoms: _322  and  _324
REMARK  135  A    between atoms: _324  and  _325
REMARK  136  A    between atoms: _324  and  _327
REMARK  137  A    between atoms: _327  and  _328
REMARK  138  A    between atoms: _328  and  _330
REMARK  139  A    between atoms: _330  and  MN_635
REMARK  140  A    between atoms: _331  and  _333
REMARK  141  A    between atoms: _333  and  _334
REMARK  142  A    between atoms: _333  and  _336
REMARK  143  A    between atoms: _336  and  _337
REMARK  144  A    between atoms: _340  and  _342
REMARK  145  A    between atoms: _342  and  _343
REMARK  146  A    between atoms: _342  and  _345
REMARK  147  A    between atoms: _345  and  _346
REMARK  148  A    between atoms: _353  and  _354
REMARK  149  A    between atoms: _359  and  _361
REMARK  150  A    between atoms: _361  and  _362
REMARK  151  A    between atoms: _364  and  _366
REMARK  152  A    between atoms: _366  and  _367
REMARK  153  A    between atoms: _366  and  _369
REMARK  154  A    between atoms: _369  and  _370
REMARK  155  A    between atoms: _373  and  _375
REMARK  156  A    between atoms: _375  and  _376
REMARK  157  A    between atoms: _378  and  _380
REMARK  158  A    between atoms: _380  and  _381
REMARK  159  A    between atoms: _380  and  _383
REMARK  160  A    between atoms: _383  and  _384
REMARK  161  A    between atoms: _394  and  _396
REMARK  162  A    between atoms: _396  and  _397
REMARK  163  A    between atoms: _400  and  _402
REMARK  164  A    between atoms: _402  and  _403
REMARK  165  A    between atoms: _402  and  _405
REMARK  166  A    between atoms: _405  and  _406
REMARK  167  A    between atoms: _412  and  _414
REMARK  168  A    between atoms: _414  and  _415
REMARK  169  A    between atoms: _414  and  _417
REMARK  170  A    between atoms: _417  and  _418
REMARK  171  A    between atoms: _428  and  _430
REMARK  172  A    between atoms: _430  and  _431
REMARK  173  A    between atoms: _430  and  _433
REMARK  174  A    between atoms: _433  and  _434
REMARK  175  A    between atoms: _437  and  _439
REMARK  176  A    between atoms: _439  and  _440
REMARK  177  A    between atoms: _439  and  _442
REMARK  178  A    between atoms: _442  and  _443
REMARK  179  A    between atoms: _446  and  _448
REMARK  180  A    between atoms: _448  and  _449
REMARK  181  A    between atoms: _448  and  _451
REMARK  182  A    between atoms: _451  and  _452
REMARK  183  A    between atoms: _462  and  _464
REMARK  184  A    between atoms: _464  and  _465
REMARK  185  A    between atoms: _464  and  _467
REMARK  186  A    between atoms: _467  and  _468
REMARK  187  A    between atoms: _468  and  _469
REMARK  188  A    between atoms: _469  and  _470
REMARK  189  A    between atoms: _479  and  _481
REMARK  190  A    between atoms: _481  and  _482
REMARK  191  A    between atoms: _481  and  _484
REMARK  192  A    between atoms: _484  and  _485
REMARK  193  A    between atoms: _488  and  _490
REMARK  194  A    between atoms: _490  and  _491
REMARK  195  A    between atoms: _490  and  _493
REMARK  196  A    between atoms: _493  and  _494
REMARK  197  A    between atoms: _500  and  _502
REMARK  198  A    between atoms: _502  and  _503
REMARK  199  A    between atoms: _505  and  _507
REMARK  200  A    between atoms: _507  and  _508
REMARK  201  A    between atoms: _507  and  _510
REMARK  202  A    between atoms: _510  and  _511
REMARK  203  A    between atoms: _511  and  _512
REMARK  204  A    between atoms: _512  and  _513
REMARK  205  A    between atoms: _522  and  _524
REMARK  206  A    between atoms: _524  and  _525
REMARK  207  A    between atoms: _524  and  _527
REMARK  208  A    between atoms: _527  and  _528
REMARK  209  A    between atoms: _528  and  _529
REMARK  210  A    between atoms: _529  and  _530
REMARK  211  A    between atoms: _530  and  _531
REMARK  212  A    between atoms: _535  and  _537
REMARK  213  A    between atoms: _537  and  _538
REMARK  214  A    between atoms: _540  and  _542
REMARK  215  A    between atoms: _542  and  _543
REMARK  216  A    between atoms: _542  and  _545
REMARK  217  A    between atoms: _548  and  _550
REMARK  218  A    between atoms: _550  and  _551
REMARK  219  A    between atoms: _550  and  _553
REMARK  220  A    between atoms: _553  and  _554
REMARK  221  A    between atoms: _556  and  _558
REMARK  222  A    between atoms: _558  and  _559
REMARK  223  A    between atoms: _558  and  _561
REMARK  224  A    between atoms: _561  and  _562
REMARK  225  A    between atoms: _567  and  _569
REMARK  226  A    between atoms: _569  and  _570
REMARK  227  A    between atoms: _572  and  _574
REMARK  228  A    between atoms: _574  and  _575
REMARK  229  A    between atoms: _574  and  _577
REMARK  230  A    between atoms: _577  and  _578
REMARK  231  A    between atoms: _584  and  _586
REMARK  232  A    between atoms: _586  and  _587
REMARK  233  A    between atoms: _586  and  _589
REMARK  234  A    between atoms: _589  and  _590
REMARK  235  A    between atoms: _596  and  _598
REMARK  236  A    between atoms: _598  and  _599
REMARK  237  A    between atoms: _598  and  _601
REMARK  238  A    between atoms: _601  and  _602
REMARK  239  A    between atoms: _605  and  _607
REMARK  240  A    between atoms: _607  and  _608
REMARK  241  A    between atoms: _607  and  _610
REMARK  242  A    between atoms: _610  and  _611
REMARK  243  A    between atoms: _611  and  _612
REMARK  244  A    between atoms: _612  and  _613
REMARK  245  A    between atoms: _613  and  _614
REMARK  246  A    between atoms: _618  and  _620
REMARK  247  A    between atoms: _620  and  _621
REMARK  248  A    between atoms: _620  and  _623
REMARK  249  A    between atoms: _623  and  _624
REMARK  250  A    between atoms: _624  and  _625
REMARK  251  A    between atoms: _625  and  _626
REMARK                            x       y       z     vdW  Elec       q    Type
REMARK                         _______ _______ _______ _____ _____    ______ ____
ROOT
ATOM      1  O   HOH     1      -0.727  23.020  15.135  0.00  0.00    +0.000 OA
ENDROOT
TORSDOF 0
REMARK  Name = ../refined-set-2016/2am4/2am4_pocket.pdb
REMARK  251 active torsions:
REMARK  status: ('A' for Active; 'I' for Inactive)
REMARK    1  A    between atoms: _1  and  _3
REMARK    2  A    between atoms: _3  and  _4
REMARK    3  A    between atoms: _3  and  _6
REMARK    4  A    between atoms: _6  and  _7
REMARK    5  A    between atoms: _10  and  _12
REMARK    6  A    between atoms: _12  and  _13
REMARK    7  A    between atoms: _12  and  _15
REMARK    8  A    between atoms: _18  and  _20
REMARK    9  A    between atoms: _20  and  _21
REMARK   10  A    between atoms: _20  and  _23
REMARK   11  A    between atoms: _23  and  _24
REMARK   12  A    between atoms: _27  and  _29
REMARK   13  A    between atoms: _29  and  _30
REMARK   14  A    between atoms: _33  and  _35
REMARK   15  A    between atoms: _35  and  _36
REMARK   16  A    between atoms: _35  and  _38
REMARK   17  A    between atoms: _38  and  _39
REMARK   18  A    between atoms: _39  and  _109
REMARK   19  A    between atoms: _40  and  _42
REMARK   20  A    between atoms: _42  and  _43
REMARK   21  A    between atoms: _42  and  _45
REMARK   22  A    between atoms: _45  and  _46
REMARK   23  A    between atoms: _49  and  _51
REMARK   24  A    between atoms: _51  and  _52
REMARK   25  A    between atoms: _51  and  _54
REMARK   26  A    between atoms: _54  and  _55
REMARK   27  A    between atoms: _55  and  _56
REMARK   28  A    between atoms: _56  and  _57
REMARK   29  A    between atoms: _66  and  _68
REMARK   30  A    between atoms: _68  and  _69
REMARK   31  A    between atoms: _68  and  _71
REMARK   32  A    between atoms: _74  and  _76
REMARK   33  A    between atoms: _76  and  _77
REMARK   34  A    between atoms: _76  and  _79
REMARK   35  A    between atoms: _79  and  _80
REMARK   36  A    between atoms: _82  and  _84
REMARK   37  A    between atoms: _84  and  _85
REMARK   38  A    between atoms: _84  and  _87
REMARK   39  A    between atoms: _87  and  _88
REMARK   40  A    between atoms: _88  and  _89
REMARK   41  A    between atoms: _94  and  _96
REMARK   42  A    between atoms: _96  and  _97
REMARK   43  A    between atoms: _96  and  _99
REMARK   44  A    between atoms: _99  and  _100
REMARK   45  A    between atoms: _103  and  _105
REMARK   46  A    between atoms: _105  and  _106
REMARK   47  A    between atoms: _105  and  _108
REMARK   48  A    between atoms: _108  and  _109
REMARK   49  A    between atoms: _110  and  _112
REMARK   50  A    between atoms: _112  and  _113
REMARK   51  A    between atoms: _115  and  _117
REMARK   52  A    between atoms: _117  and  _118
REMARK   53  A    between atoms: _117  and  _120
REMARK   54  A    between atoms: _120  and  _121
REMARK   55  A    between atoms: _124  and  _126
REMARK   56  A    between atoms: _126  and  _127
REMARK   57  A    between atoms: _126  and  _129
REMARK   58  A    between atoms: _129  and  _130
REMARK   59  A    between atoms: _130  and  _131
REMARK   60  A    between atoms: _136  and  _138
REMARK   61  A    between atoms: _138  and  _139
REMARK   62  A    between atoms: _138  and  _141
REMARK   63  A    between atoms: _141  and  _142
REMARK   64  A    between atoms: _145  and  _147
REMARK   65  A    between atoms: _147  and  _148
REMARK   66  A    between atoms: _147  and  _150
REMARK   67  A    between atoms: _150  and  _151
REMARK   68  A    between atoms: _154  and  _156
REMARK   69  A    between atoms: _156  and  _157
REMARK   70  A    between atoms: _156  and  _159
REMARK   71  A    between atoms: _159  and  _160
REMARK   72  A    between atoms: _166  and  _168
REMARK   73  A    between atoms: _168  and  _169
REMARK   74  A    between atoms: _168  and  _171
REMARK   75  A    between atoms: _171  and  _172
REMARK   76  A    between atoms: _172  and  _173
REMARK   77  A    between atoms: _178  and  _180
REMARK   78  A    between atoms: _180  and  _181
REMARK   79  A    between atoms: _183  and  _185
REMARK   80  A    between atoms: _185  and  _186
REMARK   81  A    between atoms: _185  and  _188
REMARK   82  A    between atoms: _188  and  _189
REMARK   83  A    between atoms: _194  and  _195
REMARK   84  A    between atoms: _197  and  _199
REMARK   85  A    between atoms: _199  and  _200
REMARK   86  A    between atoms: _199  and  _202
REMARK   87  A    between atoms: _202  and  _203
REMARK   88  A    between atoms: _208  and  _209
REMARK   89  A    between atoms: _211  and  _213
REMARK   90  A    between atoms: _213  and  _214
REMARK   91  A    between atoms: _213  and  _216
REMARK   92  A    between atoms: _216  and  _217
REMARK   93  A    between atoms: _217  and  _218
REMARK   94  A    between atoms: _218  and  _219
REMARK   95  A    between atoms: _219  and  _220
REMARK   96  A    between atoms: _224  and  _226
REMARK   97  A    between atoms: _226  and  _227
REMARK   98  A    between atoms: _226  and  _229
REMARK   99  A    between atoms: _229  and  _230
REMARK  100  A    between atoms: _233  and  _235
REMARK  101  A    between atoms: _235  and  _236
REMARK  102  A    between atoms: _239  and  _241
REMARK  103  A    between atoms: _241  and  _242
REMARK  104  A    between atoms: _241  and  _244
REMARK  105  A    between atoms: _244  and  _245
REMARK  106  A    between atoms: _245  and  _246
REMARK  107  A    between atoms: _246  and  _247
REMARK  108  A    between atoms: _256  and  _258
REMARK  109  A    between atoms: _258  and  _259
REMARK  110  A    between atoms: _258  and  _261
REMARK  111  A    between atoms: _261  and  _262
REMARK  112  A    between atoms: _267  and  _269
REMARK  113  A    between atoms: _269  and  _270
REMARK  114  A    between atoms: _269  and  _272
REMARK  115  A    between atoms: _272  and  _273
REMARK  116  A    between atoms: _278  and  _279
REMARK  117  A    between atoms: _281  and  _283
REMARK  118  A    between atoms: _283  and  _284
REMARK  119  A    between atoms: _287  and  _289
REMARK  120  A    between atoms: _289  and  _290
REMARK  121  A    between atoms: _289  and  _292
REMARK  122  A    between atoms: _295  and  _297
REMARK  123  A    between atoms: _297  and  _298
REMARK  124  A    between atoms: _297  and  _300
REMARK  125  A    between atoms: _303  and  _305
REMARK  126  A    between atoms: _305  and  _306
REMARK  127  A    between atoms: _305  and  _308
REMARK  128  A    between atoms: _308  and  _309
REMARK  129  A    between atoms: _309  and  _310
REMARK  130  A    between atoms: _313  and  _315
REMARK  131  A    between atoms: _315  and  _316
REMARK  132  A    between atoms: _315  and  _318
REMARK  133  A    between atoms: _318  and  _319
REMARK  134  A    between atoms: _322  and  _324
REMARK  135  A    between atoms: _324  and  _325
REMARK  136  A    between atoms: _324  and  _327
REMARK  137  A    between atoms: _327  and  _328
REMARK  138  A    between atoms: _328  and  _330
REMARK  139  A    between atoms: _330  and  MN_635
REMARK  140  A    between atoms: _331  and  _333
REMARK  141  A    between atoms: _333  and  _334
REMARK  142  A    between atoms: _333  and  _336
REMARK  143  A    between atoms: _336  and  _337
REMARK  144  A    between atoms: _340  and  _342
REMARK  145  A    between atoms: _342  and  _343
REMARK  146  A    between atoms: _342  and  _345
REMARK  147  A    between atoms: _345  and  _346
REMARK  148  A    between atoms: _353  and  _354
REMARK  149  A    between atoms: _359  and  _361
REMARK  150  A    between atoms: _361  and  _362
REMARK  151  A    between atoms: _364  and  _366
REMARK  152  A    between atoms: _366  and  _367
REMARK  153  A    between atoms: _366  and  _369
REMARK  154  A    between atoms: _369  and  _370
REMARK  155  A    between atoms: _373  and  _375
REMARK  156  A    between atoms: _375  and  _376
REMARK  157  A    between atoms: _378  and  _380
REMARK  158  A    between atoms: _380  and  _381
REMARK  159  A    between atoms: _380  and  _383
REMARK  160  A    between atoms: _383  and  _384
REMARK  161  A    between atoms: _394  and  _396
REMARK  162  A    between atoms: _396  and  _397
REMARK  163  A    between atoms: _400  and  _402
REMARK  164  A    between atoms: _402  and  _403
REMARK  165  A    between atoms: _402  and  _405
REMARK  166  A    between atoms: _405  and  _406
REMARK  167  A    between atoms: _412  and  _414
REMARK  168  A    between atoms: _414  and  _415
REMARK  169  A    between atoms: _414  and  _417
REMARK  170  A    between atoms: _417  and  _418
REMARK  171  A    between atoms: _428  and  _430
REMARK  172  A    between atoms: _430  and  _431
REMARK  173  A    between atoms: _430  and  _433
REMARK  174  A    between atoms: _433  and  _434
REMARK  175  A    between atoms: _437  and  _439
REMARK  176  A    between atoms: _439  and  _440
REMARK  177  A    between atoms: _439  and  _442
REMARK  178  A    between atoms: _442  and  _443
REMARK  179  A    between atoms: _446  and  _448
REMARK  180  A    between atoms: _448  and  _449
REMARK  181  A    between atoms: _448  and  _451
REMARK  182  A    between atoms: _451  and  _452
REMARK  183  A    between atoms: _462  and  _464
REMARK  184  A    between atoms: _464  and  _465
REMARK  185  A    between atoms: _464  and  _467
REMARK  186  A    between atoms: _467  and  _468
REMARK  187  A    between atoms: _468  and  _469
REMARK  188  A    between atoms: _469  and  _470
REMARK  189  A    between atoms: _479  and  _481
REMARK  190  A    between atoms: _481  and  _482
REMARK  191  A    between atoms: _481  and  _484
REMARK  192  A    between atoms: _484  and  _485
REMARK  193  A    between atoms: _488  and  _490
REMARK  194  A    between atoms: _490  and  _491
REMARK  195  A    between atoms: _490  and  _493
REMARK  196  A    between atoms: _493  and  _494
REMARK  197  A    between atoms: _500  and  _502
REMARK  198  A    between atoms: _502  and  _503
REMARK  199  A    between atoms: _505  and  _507
REMARK  200  A    between atoms: _507  and  _508
REMARK  201  A    between atoms: _507  and  _510
REMARK  202  A    between atoms: _510  and  _511
REMARK  203  A    between atoms: _511  and  _512
REMARK  204  A    between atoms: _512  and  _513
REMARK  205  A    between atoms: _522  and  _524
REMARK  206  A    between atoms: _524  and  _525
REMARK  207  A    between atoms: _524  and  _527
REMARK  208  A    between atoms: _527  and  _528
REMARK  209  A    between atoms: _528  and  _529
REMARK  210  A    between atoms: _529  and  _530
REMARK  211  A    between atoms: _530  and  _531
REMARK  212  A    between atoms: _535  and  _537
REMARK  213  A    between atoms: _537  and  _538
REMARK  214  A    between atoms: _540  and  _542
REMARK  215  A    between atoms: _542  and  _543
REMARK  216  A    between atoms: _542  and  _545
REMARK  217  A    between atoms: _548  and  _550
REMARK  218  A    between atoms: _550  and  _551
REMARK  219  A    between atoms: _550  and  _553
REMARK  220  A    between atoms: _553  and  _554
REMARK  221  A    between atoms: _556  and  _558
REMARK  222  A    between atoms: _558  and  _559
REMARK  223  A    between atoms: _558  and  _561
REMARK  224  A    between atoms: _561  and  _562
REMARK  225  A    between atoms: _567  and  _569
REMARK  226  A    between atoms: _569  and  _570
REMARK  227  A    between atoms: _572  and  _574
REMARK  228  A    between atoms: _574  and  _575
REMARK  229  A    between atoms: _574  and  _577
REMARK  230  A    between atoms: _577  and  _578
REMARK  231  A    between atoms: _584  and  _586
REMARK  232  A    between atoms: _586  and  _587
REMARK  233  A    between atoms: _586  and  _589
REMARK  234  A    between atoms: _589  and  _590
REMARK  235  A    between atoms: _596  and  _598
REMARK  236  A    between atoms: _598  and  _599
REMARK  237  A    between atoms: _598  and  _601
REMARK  238  A    between atoms: _601  and  _602
REMARK  239  A    between atoms: _605  and  _607
REMARK  240  A    between atoms: _607  and  _608
REMARK  241  A    between atoms: _607  and  _610
REMARK  242  A    between atoms: _610  and  _611
REMARK  243  A    between atoms: _611  and  _612
REMARK  244  A    between atoms: _612  and  _613
REMARK  245  A    between atoms: _613  and  _614
REMARK  246  A    between atoms: _618  and  _620
REMARK  247  A    between atoms: _620  and  _621
REMARK  248  A    between atoms: _620  and  _623
REMARK  249  A    between atoms: _623  and  _624
REMARK  250  A    between atoms: _624  and  _625
REMARK  251  A    between atoms: _625  and  _626
REMARK                            x       y       z     vdW  Elec       q    Type
REMARK                         _______ _______ _______ _____ _____    ______ ____
ROOT
ATOM      1  O   HOH     1       5.052  16.552  15.490  0.00  0.00    +0.000 OA
ENDROOT
TORSDOF 0
REMARK  Name = ../refined-set-2016/2am4/2am4_pocket.pdb
REMARK  251 active torsions:
REMARK  status: ('A' for Active; 'I' for Inactive)
REMARK    1  A    between atoms: _1  and  _3
REMARK    2  A    between atoms: _3  and  _4
REMARK    3  A    between atoms: _3  and  _6
REMARK    4  A    between atoms: _6  and  _7
REMARK    5  A    between atoms: _10  and  _12
REMARK    6  A    between atoms: _12  and  _13
REMARK    7  A    between atoms: _12  and  _15
REMARK    8  A    between atoms: _18  and  _20
REMARK    9  A    between atoms: _20  and  _21
REMARK   10  A    between atoms: _20  and  _23
REMARK   11  A    between atoms: _23  and  _24
REMARK   12  A    between atoms: _27  and  _29
REMARK   13  A    between atoms: _29  and  _30
REMARK   14  A    between atoms: _33  and  _35
REMARK   15  A    between atoms: _35  and  _36
REMARK   16  A    between atoms: _35  and  _38
REMARK   17  A    between atoms: _38  and  _39
REMARK   18  A    between atoms: _39  and  _109
REMARK   19  A    between atoms: _40  and  _42
REMARK   20  A    between atoms: _42  and  _43
REMARK   21  A    between atoms: _42  and  _45
REMARK   22  A    between atoms: _45  and  _46
REMARK   23  A    between atoms: _49  and  _51
REMARK   24  A    between atoms: _51  and  _52
REMARK   25  A    between atoms: _51  and  _54
REMARK   26  A    between atoms: _54  and  _55
REMARK   27  A    between atoms: _55  and  _56
REMARK   28  A    between atoms: _56  and  _57
REMARK   29  A    between atoms: _66  and  _68
REMARK   30  A    between atoms: _68  and  _69
REMARK   31  A    between atoms: _68  and  _71
REMARK   32  A    between atoms: _74  and  _76
REMARK   33  A    between atoms: _76  and  _77
REMARK   34  A    between atoms: _76  and  _79
REMARK   35  A    between atoms: _79  and  _80
REMARK   36  A    between atoms: _82  and  _84
REMARK   37  A    between atoms: _84  and  _85
REMARK   38  A    between atoms: _84  and  _87
REMARK   39  A    between atoms: _87  and  _88
REMARK   40  A    between atoms: _88  and  _89
REMARK   41  A    between atoms: _94  and  _96
REMARK   42  A    between atoms: _96  and  _97
REMARK   43  A    between atoms: _96  and  _99
REMARK   44  A    between atoms: _99  and  _100
REMARK   45  A    between atoms: _103  and  _105
REMARK   46  A    between atoms: _105  and  _106
REMARK   47  A    between atoms: _105  and  _108
REMARK   48  A    between atoms: _108  and  _109
REMARK   49  A    between atoms: _110  and  _112
REMARK   50  A    between atoms: _112  and  _113
REMARK   51  A    between atoms: _115  and  _117
REMARK   52  A    between atoms: _117  and  _118
REMARK   53  A    between atoms: _117  and  _120
REMARK   54  A    between atoms: _120  and  _121
REMARK   55  A    between atoms: _124  and  _126
REMARK   56  A    between atoms: _126  and  _127
REMARK   57  A    between atoms: _126  and  _129
REMARK   58  A    between atoms: _129  and  _130
REMARK   59  A    between atoms: _130  and  _131
REMARK   60  A    between atoms: _136  and  _138
REMARK   61  A    between atoms: _138  and  _139
REMARK   62  A    between atoms: _138  and  _141
REMARK   63  A    between atoms: _141  and  _142
REMARK   64  A    between atoms: _145  and  _147
REMARK   65  A    between atoms: _147  and  _148
REMARK   66  A    between atoms: _147  and  _150
REMARK   67  A    between atoms: _150  and  _151
REMARK   68  A    between atoms: _154  and  _156
REMARK   69  A    between atoms: _156  and  _157
REMARK   70  A    between atoms: _156  and  _159
REMARK   71  A    between atoms: _159  and  _160
REMARK   72  A    between atoms: _166  and  _168
REMARK   73  A    between atoms: _168  and  _169
REMARK   74  A    between atoms: _168  and  _171
REMARK   75  A    between atoms: _171  and  _172
REMARK   76  A    between atoms: _172  and  _173
REMARK   77  A    between atoms: _178  and  _180
REMARK   78  A    between atoms: _180  and  _181
REMARK   79  A    between atoms: _183  and  _185
REMARK   80  A    between atoms: _185  and  _186
REMARK   81  A    between atoms: _185  and  _188
REMARK   82  A    between atoms: _188  and  _189
REMARK   83  A    between atoms: _194  and  _195
REMARK   84  A    between atoms: _197  and  _199
REMARK   85  A    between atoms: _199  and  _200
REMARK   86  A    between atoms: _199  and  _202
REMARK   87  A    between atoms: _202  and  _203
REMARK   88  A    between atoms: _208  and  _209
REMARK   89  A    between atoms: _211  and  _213
REMARK   90  A    between atoms: _213  and  _214
REMARK   91  A    between atoms: _213  and  _216
REMARK   92  A    between atoms: _216  and  _217
REMARK   93  A    between atoms: _217  and  _218
REMARK   94  A    between atoms: _218  and  _219
REMARK   95  A    between atoms: _219  and  _220
REMARK   96  A    between atoms: _224  and  _226
REMARK   97  A    between atoms: _226  and  _227
REMARK   98  A    between atoms: _226  and  _229
REMARK   99  A    between atoms: _229  and  _230
REMARK  100  A    between atoms: _233  and  _235
REMARK  101  A    between atoms: _235  and  _236
REMARK  102  A    between atoms: _239  and  _241
REMARK  103  A    between atoms: _241  and  _242
REMARK  104  A    between atoms: _241  and  _244
REMARK  105  A    between atoms: _244  and  _245
REMARK  106  A    between atoms: _245  and  _246
REMARK  107  A    between atoms: _246  and  _247
REMARK  108  A    between atoms: _256  and  _258
REMARK  109  A    between atoms: _258  and  _259
REMARK  110  A    between atoms: _258  and  _261
REMARK  111  A    between atoms: _261  and  _262
REMARK  112  A    between atoms: _267  and  _269
REMARK  113  A    between atoms: _269  and  _270
REMARK  114  A    between atoms: _269  and  _272
REMARK  115  A    between atoms: _272  and  _273
REMARK  116  A    between atoms: _278  and  _279
REMARK  117  A    between atoms: _281  and  _283
REMARK  118  A    between atoms: _283  and  _284
REMARK  119  A    between atoms: _287  and  _289
REMARK  120  A    between atoms: _289  and  _290
REMARK  121  A    between atoms: _289  and  _292
REMARK  122  A    between atoms: _295  and  _297
REMARK  123  A    between atoms: _297  and  _298
REMARK  124  A    between atoms: _297  and  _300
REMARK  125  A    between atoms: _303  and  _305
REMARK  126  A    between atoms: _305  and  _306
REMARK  127  A    between atoms: _305  and  _308
REMARK  128  A    between atoms: _308  and  _309
REMARK  129  A    between atoms: _309  and  _310
REMARK  130  A    between atoms: _313  and  _315
REMARK  131  A    between atoms: _315  and  _316
REMARK  132  A    between atoms: _315  and  _318
REMARK  133  A    between atoms: _318  and  _319
REMARK  134  A    between atoms: _322  and  _324
REMARK  135  A    between atoms: _324  and  _325
REMARK  136  A    between atoms: _324  and  _327
REMARK  137  A    between atoms: _327  and  _328
REMARK  138  A    between atoms: _328  and  _330
REMARK  139  A    between atoms: _330  and  MN_635
REMARK  140  A    between atoms: _331  and  _333
REMARK  141  A    between atoms: _333  and  _334
REMARK  142  A    between atoms: _333  and  _336
REMARK  143  A    between atoms: _336  and  _337
REMARK  144  A    between atoms: _340  and  _342
REMARK  145  A    between atoms: _342  and  _343
REMARK  146  A    between atoms: _342  and  _345
REMARK  147  A    between atoms: _345  and  _346
REMARK  148  A    between atoms: _353  and  _354
REMARK  149  A    between atoms: _359  and  _361
REMARK  150  A    between atoms: _361  and  _362
REMARK  151  A    between atoms: _364  and  _366
REMARK  152  A    between atoms: _366  and  _367
REMARK  153  A    between atoms: _366  and  _369
REMARK  154  A    between atoms: _369  and  _370
REMARK  155  A    between atoms: _373  and  _375
REMARK  156  A    between atoms: _375  and  _376
REMARK  157  A    between atoms: _378  and  _380
REMARK  158  A    between atoms: _380  and  _381
REMARK  159  A    between atoms: _380  and  _383
REMARK  160  A    between atoms: _383  and  _384
REMARK  161  A    between atoms: _394  and  _396
REMARK  162  A    between atoms: _396  and  _397
REMARK  163  A    between atoms: _400  and  _402
REMARK  164  A    between atoms: _402  and  _403
REMARK  165  A    between atoms: _402  and  _405
REMARK  166  A    between atoms: _405  and  _406
REMARK  167  A    between atoms: _412  and  _414
REMARK  168  A    between atoms: _414  and  _415
REMARK  169  A    between atoms: _414  and  _417
REMARK  170  A    between atoms: _417  and  _418
REMARK  171  A    between atoms: _428  and  _430
REMARK  172  A    between atoms: _430  and  _431
REMARK  173  A    between atoms: _430  and  _433
REMARK  174  A    between atoms: _433  and  _434
REMARK  175  A    between atoms: _437  and  _439
REMARK  176  A    between atoms: _439  and  _440
REMARK  177  A    between atoms: _439  and  _442
REMARK  178  A    between atoms: _442  and  _443
REMARK  179  A    between atoms: _446  and  _448
REMARK  180  A    between atoms: _448  and  _449
REMARK  181  A    between atoms: _448  and  _451
REMARK  182  A    between atoms: _451  and  _452
REMARK  183  A    between atoms: _462  and  _464
REMARK  184  A    between atoms: _464  and  _465
REMARK  185  A    between atoms: _464  and  _467
REMARK  186  A    between atoms: _467  and  _468
REMARK  187  A    between atoms: _468  and  _469
REMARK  188  A    between atoms: _469  and  _470
REMARK  189  A    between atoms: _479  and  _481
REMARK  190  A    between atoms: _481  and  _482
REMARK  191  A    between atoms: _481  and  _484
REMARK  192  A    between atoms: _484  and  _485
REMARK  193  A    between atoms: _488  and  _490
REMARK  194  A    between atoms: _490  and  _491
REMARK  195  A    between atoms: _490  and  _493
REMARK  196  A    between atoms: _493  and  _494
REMARK  197  A    between atoms: _500  and  _502
REMARK  198  A    between atoms: _502  and  _503
REMARK  199  A    between atoms: _505  and  _507
REMARK  200  A    between atoms: _507  and  _508
REMARK  201  A    between atoms: _507  and  _510
REMARK  202  A    between atoms: _510  and  _511
REMARK  203  A    between atoms: _511  and  _512
REMARK  204  A    between atoms: _512  and  _513
REMARK  205  A    between atoms: _522  and  _524
REMARK  206  A    between atoms: _524  and  _525
REMARK  207  A    between atoms: _524  and  _527
REMARK  208  A    between atoms: _527  and  _528
REMARK  209  A    between atoms: _528  and  _529
REMARK  210  A    between atoms: _529  and  _530
REMARK  211  A    between atoms: _530  and  _531
REMARK  212  A    between atoms: _535  and  _537
REMARK  213  A    between atoms: _537  and  _538
REMARK  214  A    between atoms: _540  and  _542
REMARK  215  A    between atoms: _542  and  _543
REMARK  216  A    between atoms: _542  and  _545
REMARK  217  A    between atoms: _548  and  _550
REMARK  218  A    between atoms: _550  and  _551
REMARK  219  A    between atoms: _550  and  _553
REMARK  220  A    between atoms: _553  and  _554
REMARK  221  A    between atoms: _556  and  _558
REMARK  222  A    between atoms: _558  and  _559
REMARK  223  A    between atoms: _558  and  _561
REMARK  224  A    between atoms: _561  and  _562
REMARK  225  A    between atoms: _567  and  _569
REMARK  226  A    between atoms: _569  and  _570
REMARK  227  A    between atoms: _572  and  _574
REMARK  228  A    between atoms: _574  and  _575
REMARK  229  A    between atoms: _574  and  _577
REMARK  230  A    between atoms: _577  and  _578
REMARK  231  A    between atoms: _584  and  _586
REMARK  232  A    between atoms: _586  and  _587
REMARK  233  A    between atoms: _586  and  _589
REMARK  234  A    between atoms: _589  and  _590
REMARK  235  A    between atoms: _596  and  _598
REMARK  236  A    between atoms: _598  and  _599
REMARK  237  A    between atoms: _598  and  _601
REMARK  238  A    between atoms: _601  and  _602
REMARK  239  A    between atoms: _605  and  _607
REMARK  240  A    between atoms: _607  and  _608
REMARK  241  A    between atoms: _607  and  _610
REMARK  242  A    between atoms: _610  and  _611
REMARK  243  A    between atoms: _611  and  _612
REMARK  244  A    between atoms: _612  and  _613
REMARK  245  A    between atoms: _613  and  _614
REMARK  246  A    between atoms: _618  and  _620
REMARK  247  A    between atoms: _620  and  _621
REMARK  248  A    between atoms: _620  and  _623
REMARK  249  A    between atoms: _623  and  _624
REMARK  250  A    between atoms: _624  and  _625
REMARK  251  A    between atoms: _625  and  _626
REMARK                            x       y       z     vdW  Elec       q    Type
REMARK                         _______ _______ _______ _____ _____    ______ ____
ROOT
ATOM      1  O   HOH     1       3.697  28.700   8.417  0.00  0.00    +0.000 OA
ENDROOT
TORSDOF 0
REMARK  Name = ../refined-set-2016/2am4/2am4_pocket.pdb
REMARK  251 active torsions:
REMARK  status: ('A' for Active; 'I' for Inactive)
REMARK    1  A    between atoms: _1  and  _3
REMARK    2  A    between atoms: _3  and  _4
REMARK    3  A    between atoms: _3  and  _6
REMARK    4  A    between atoms: _6  and  _7
REMARK    5  A    between atoms: _10  and  _12
REMARK    6  A    between atoms: _12  and  _13
REMARK    7  A    between atoms: _12  and  _15
REMARK    8  A    between atoms: _18  and  _20
REMARK    9  A    between atoms: _20  and  _21
REMARK   10  A    between atoms: _20  and  _23
REMARK   11  A    between atoms: _23  and  _24
REMARK   12  A    between atoms: _27  and  _29
REMARK   13  A    between atoms: _29  and  _30
REMARK   14  A    between atoms: _33  and  _35
REMARK   15  A    between atoms: _35  and  _36
REMARK   16  A    between atoms: _35  and  _38
REMARK   17  A    between atoms: _38  and  _39
REMARK   18  A    between atoms: _39  and  _109
REMARK   19  A    between atoms: _40  and  _42
REMARK   20  A    between atoms: _42  and  _43
REMARK   21  A    between atoms: _42  and  _45
REMARK   22  A    between atoms: _45  and  _46
REMARK   23  A    between atoms: _49  and  _51
REMARK   24  A    between atoms: _51  and  _52
REMARK   25  A    between atoms: _51  and  _54
REMARK   26  A    between atoms: _54  and  _55
REMARK   27  A    between atoms: _55  and  _56
REMARK   28  A    between atoms: _56  and  _57
REMARK   29  A    between atoms: _66  and  _68
REMARK   30  A    between atoms: _68  and  _69
REMARK   31  A    between atoms: _68  and  _71
REMARK   32  A    between atoms: _74  and  _76
REMARK   33  A    between atoms: _76  and  _77
REMARK   34  A    between atoms: _76  and  _79
REMARK   35  A    between atoms: _79  and  _80
REMARK   36  A    between atoms: _82  and  _84
REMARK   37  A    between atoms: _84  and  _85
REMARK   38  A    between atoms: _84  and  _87
REMARK   39  A    between atoms: _87  and  _88
REMARK   40  A    between atoms: _88  and  _89
REMARK   41  A    between atoms: _94  and  _96
REMARK   42  A    between atoms: _96  and  _97
REMARK   43  A    between atoms: _96  and  _99
REMARK   44  A    between atoms: _99  and  _100
REMARK   45  A    between atoms: _103  and  _105
REMARK   46  A    between atoms: _105  and  _106
REMARK   47  A    between atoms: _105  and  _108
REMARK   48  A    between atoms: _108  and  _109
REMARK   49  A    between atoms: _110  and  _112
REMARK   50  A    between atoms: _112  and  _113
REMARK   51  A    between atoms: _115  and  _117
REMARK   52  A    between atoms: _117  and  _118
REMARK   53  A    between atoms: _117  and  _120
REMARK   54  A    between atoms: _120  and  _121
REMARK   55  A    between atoms: _124  and  _126
REMARK   56  A    between atoms: _126  and  _127
REMARK   57  A    between atoms: _126  and  _129
REMARK   58  A    between atoms: _129  and  _130
REMARK   59  A    between atoms: _130  and  _131
REMARK   60  A    between atoms: _136  and  _138
REMARK   61  A    between atoms: _138  and  _139
REMARK   62  A    between atoms: _138  and  _141
REMARK   63  A    between atoms: _141  and  _142
REMARK   64  A    between atoms: _145  and  _147
REMARK   65  A    between atoms: _147  and  _148
REMARK   66  A    between atoms: _147  and  _150
REMARK   67  A    between atoms: _150  and  _151
REMARK   68  A    between atoms: _154  and  _156
REMARK   69  A    between atoms: _156  and  _157
REMARK   70  A    between atoms: _156  and  _159
REMARK   71  A    between atoms: _159  and  _160
REMARK   72  A    between atoms: _166  and  _168
REMARK   73  A    between atoms: _168  and  _169
REMARK   74  A    between atoms: _168  and  _171
REMARK   75  A    between atoms: _171  and  _172
REMARK   76  A    between atoms: _172  and  _173
REMARK   77  A    between atoms: _178  and  _180
REMARK   78  A    between atoms: _180  and  _181
REMARK   79  A    between atoms: _183  and  _185
REMARK   80  A    between atoms: _185  and  _186
REMARK   81  A    between atoms: _185  and  _188
REMARK   82  A    between atoms: _188  and  _189
REMARK   83  A    between atoms: _194  and  _195
REMARK   84  A    between atoms: _197  and  _199
REMARK   85  A    between atoms: _199  and  _200
REMARK   86  A    between atoms: _199  and  _202
REMARK   87  A    between atoms: _202  and  _203
REMARK   88  A    between atoms: _208  and  _209
REMARK   89  A    between atoms: _211  and  _213
REMARK   90  A    between atoms: _213  and  _214
REMARK   91  A    between atoms: _213  and  _216
REMARK   92  A    between atoms: _216  and  _217
REMARK   93  A    between atoms: _217  and  _218
REMARK   94  A    between atoms: _218  and  _219
REMARK   95  A    between atoms: _219  and  _220
REMARK   96  A    between atoms: _224  and  _226
REMARK   97  A    between atoms: _226  and  _227
REMARK   98  A    between atoms: _226  and  _229
REMARK   99  A    between atoms: _229  and  _230
REMARK  100  A    between atoms: _233  and  _235
REMARK  101  A    between atoms: _235  and  _236
REMARK  102  A    between atoms: _239  and  _241
REMARK  103  A    between atoms: _241  and  _242
REMARK  104  A    between atoms: _241  and  _244
REMARK  105  A    between atoms: _244  and  _245
REMARK  106  A    between atoms: _245  and  _246
REMARK  107  A    between atoms: _246  and  _247
REMARK  108  A    between atoms: _256  and  _258
REMARK  109  A    between atoms: _258  and  _259
REMARK  110  A    between atoms: _258  and  _261
REMARK  111  A    between atoms: _261  and  _262
REMARK  112  A    between atoms: _267  and  _269
REMARK  113  A    between atoms: _269  and  _270
REMARK  114  A    between atoms: _269  and  _272
REMARK  115  A    between atoms: _272  and  _273
REMARK  116  A    between atoms: _278  and  _279
REMARK  117  A    between atoms: _281  and  _283
REMARK  118  A    between atoms: _283  and  _284
REMARK  119  A    between atoms: _287  and  _289
REMARK  120  A    between atoms: _289  and  _290
REMARK  121  A    between atoms: _289  and  _292
REMARK  122  A    between atoms: _295  and  _297
REMARK  123  A    between atoms: _297  and  _298
REMARK  124  A    between atoms: _297  and  _300
REMARK  125  A    between atoms: _303  and  _305
REMARK  126  A    between atoms: _305  and  _306
REMARK  127  A    between atoms: _305  and  _308
REMARK  128  A    between atoms: _308  and  _309
REMARK  129  A    between atoms: _309  and  _310
REMARK  130  A    between atoms: _313  and  _315
REMARK  131  A    between atoms: _315  and  _316
REMARK  132  A    between atoms: _315  and  _318
REMARK  133  A    between atoms: _318  and  _319
REMARK  134  A    between atoms: _322  and  _324
REMARK  135  A    between atoms: _324  and  _325
REMARK  136  A    between atoms: _324  and  _327
REMARK  137  A    between atoms: _327  and  _328
REMARK  138  A    between atoms: _328  and  _330
REMARK  139  A    between atoms: _330  and  MN_635
REMARK  140  A    between atoms: _331  and  _333
REMARK  141  A    between atoms: _333  and  _334
REMARK  142  A    between atoms: _333  and  _336
REMARK  143  A    between atoms: _336  and  _337
REMARK  144  A    between atoms: _340  and  _342
REMARK  145  A    between atoms: _342  and  _343
REMARK  146  A    between atoms: _342  and  _345
REMARK  147  A    between atoms: _345  and  _346
REMARK  148  A    between atoms: _353  and  _354
REMARK  149  A    between atoms: _359  and  _361
REMARK  150  A    between atoms: _361  and  _362
REMARK  151  A    between atoms: _364  and  _366
REMARK  152  A    between atoms: _366  and  _367
REMARK  153  A    between atoms: _366  and  _369
REMARK  154  A    between atoms: _369  and  _370
REMARK  155  A    between atoms: _373  and  _375
REMARK  156  A    between atoms: _375  and  _376
REMARK  157  A    between atoms: _378  and  _380
REMARK  158  A    between atoms: _380  and  _381
REMARK  159  A    between atoms: _380  and  _383
REMARK  160  A    between atoms: _383  and  _384
REMARK  161  A    between atoms: _394  and  _396
REMARK  162  A    between atoms: _396  and  _397
REMARK  163  A    between atoms: _400  and  _402
REMARK  164  A    between atoms: _402  and  _403
REMARK  165  A    between atoms: _402  and  _405
REMARK  166  A    between atoms: _405  and  _406
REMARK  167  A    between atoms: _412  and  _414
REMARK  168  A    between atoms: _414  and  _415
REMARK  169  A    between atoms: _414  and  _417
REMARK  170  A    between atoms: _417  and  _418
REMARK  171  A    between atoms: _428  and  _430
REMARK  172  A    between atoms: _430  and  _431
REMARK  173  A    between atoms: _430  and  _433
REMARK  174  A    between atoms: _433  and  _434
REMARK  175  A    between atoms: _437  and  _439
REMARK  176  A    between atoms: _439  and  _440
REMARK  177  A    between atoms: _439  and  _442
REMARK  178  A    between atoms: _442  and  _443
REMARK  179  A    between atoms: _446  and  _448
REMARK  180  A    between atoms: _448  and  _449
REMARK  181  A    between atoms: _448  and  _451
REMARK  182  A    between atoms: _451  and  _452
REMARK  183  A    between atoms: _462  and  _464
REMARK  184  A    between atoms: _464  and  _465
REMARK  185  A    between atoms: _464  and  _467
REMARK  186  A    between atoms: _467  and  _468
REMARK  187  A    between atoms: _468  and  _469
REMARK  188  A    between atoms: _469  and  _470
REMARK  189  A    between atoms: _479  and  _481
REMARK  190  A    between atoms: _481  and  _482
REMARK  191  A    between atoms: _481  and  _484
REMARK  192  A    between atoms: _484  and  _485
REMARK  193  A    between atoms: _488  and  _490
REMARK  194  A    between atoms: _490  and  _491
REMARK  195  A    between atoms: _490  and  _493
REMARK  196  A    between atoms: _493  and  _494
REMARK  197  A    between atoms: _500  and  _502
REMARK  198  A    between atoms: _502  and  _503
REMARK  199  A    between atoms: _505  and  _507
REMARK  200  A    between atoms: _507  and  _508
REMARK  201  A    between atoms: _507  and  _510
REMARK  202  A    between atoms: _510  and  _511
REMARK  203  A    between atoms: _511  and  _512
REMARK  204  A    between atoms: _512  and  _513
REMARK  205  A    between atoms: _522  and  _524
REMARK  206  A    between atoms: _524  and  _525
REMARK  207  A    between atoms: _524  and  _527
REMARK  208  A    between atoms: _527  and  _528
REMARK  209  A    between atoms: _528  and  _529
REMARK  210  A    between atoms: _529  and  _530
REMARK  211  A    between atoms: _530  and  _531
REMARK  212  A    between atoms: _535  and  _537
REMARK  213  A    between atoms: _537  and  _538
REMARK  214  A    between atoms: _540  and  _542
REMARK  215  A    between atoms: _542  and  _543
REMARK  216  A    between atoms: _542  and  _545
REMARK  217  A    between atoms: _548  and  _550
REMARK  218  A    between atoms: _550  and  _551
REMARK  219  A    between atoms: _550  and  _553
REMARK  220  A    between atoms: _553  and  _554
REMARK  221  A    between atoms: _556  and  _558
REMARK  222  A    between atoms: _558  and  _559
REMARK  223  A    between atoms: _558  and  _561
REMARK  224  A    between atoms: _561  and  _562
REMARK  225  A    between atoms: _567  and  _569
REMARK  226  A    between atoms: _569  and  _570
REMARK  227  A    between atoms: _572  and  _574
REMARK  228  A    between atoms: _574  and  _575
REMARK  229  A    between atoms: _574  and  _577
REMARK  230  A    between atoms: _577  and  _578
REMARK  231  A    between atoms: _584  and  _586
REMARK  232  A    between atoms: _586  and  _587
REMARK  233  A    between atoms: _586  and  _589
REMARK  234  A    between atoms: _589  and  _590
REMARK  235  A    between atoms: _596  and  _598
REMARK  236  A    between atoms: _598  and  _599
REMARK  237  A    between atoms: _598  and  _601
REMARK  238  A    between atoms: _601  and  _602
REMARK  239  A    between atoms: _605  and  _607
REMARK  240  A    between atoms: _607  and  _608
REMARK  241  A    between atoms: _607  and  _610
REMARK  242  A    between atoms: _610  and  _611
REMARK  243  A    between atoms: _611  and  _612
REMARK  244  A    between atoms: _612  and  _613
REMARK  245  A    between atoms: _613  and  _614
REMARK  246  A    between atoms: _618  and  _620
REMARK  247  A    between atoms: _620  and  _621
REMARK  248  A    between atoms: _620  and  _623
REMARK  249  A    between atoms: _623  and  _624
REMARK  250  A    between atoms: _624  and  _625
REMARK  251  A    between atoms: _625  and  _626
REMARK                            x       y       z     vdW  Elec       q    Type
REMARK                         _______ _______ _______ _____ _____    ______ ____
ROOT
ATOM      1  O   HOH     1      10.653  20.127  14.784  0.00  0.00    +0.000 OA
ENDROOT
TORSDOF 0
REMARK  Name = ../refined-set-2016/2am4/2am4_pocket.pdb
REMARK  251 active torsions:
REMARK  status: ('A' for Active; 'I' for Inactive)
REMARK    1  A    between atoms: _1  and  _3
REMARK    2  A    between atoms: _3  and  _4
REMARK    3  A    between atoms: _3  and  _6
REMARK    4  A    between atoms: _6  and  _7
REMARK    5  A    between atoms: _10  and  _12
REMARK    6  A    between atoms: _12  and  _13
REMARK    7  A    between atoms: _12  and  _15
REMARK    8  A    between atoms: _18  and  _20
REMARK    9  A    between atoms: _20  and  _21
REMARK   10  A    between atoms: _20  and  _23
REMARK   11  A    between atoms: _23  and  _24
REMARK   12  A    between atoms: _27  and  _29
REMARK   13  A    between atoms: _29  and  _30
REMARK   14  A    between atoms: _33  and  _35
REMARK   15  A    between atoms: _35  and  _36
REMARK   16  A    between atoms: _35  and  _38
REMARK   17  A    between atoms: _38  and  _39
REMARK   18  A    between atoms: _39  and  _109
REMARK   19  A    between atoms: _40  and  _42
REMARK   20  A    between atoms: _42  and  _43
REMARK   21  A    between atoms: _42  and  _45
REMARK   22  A    between atoms: _45  and  _46
REMARK   23  A    between atoms: _49  and  _51
REMARK   24  A    between atoms: _51  and  _52
REMARK   25  A    between atoms: _51  and  _54
REMARK   26  A    between atoms: _54  and  _55
REMARK   27  A    between atoms: _55  and  _56
REMARK   28  A    between atoms: _56  and  _57
REMARK   29  A    between atoms: _66  and  _68
REMARK   30  A    between atoms: _68  and  _69
REMARK   31  A    between atoms: _68  and  _71
REMARK   32  A    between atoms: _74  and  _76
REMARK   33  A    between atoms: _76  and  _77
REMARK   34  A    between atoms: _76  and  _79
REMARK   35  A    between atoms: _79  and  _80
REMARK   36  A    between atoms: _82  and  _84
REMARK   37  A    between atoms: _84  and  _85
REMARK   38  A    between atoms: _84  and  _87
REMARK   39  A    between atoms: _87  and  _88
REMARK   40  A    between atoms: _88  and  _89
REMARK   41  A    between atoms: _94  and  _96
REMARK   42  A    between atoms: _96  and  _97
REMARK   43  A    between atoms: _96  and  _99
REMARK   44  A    between atoms: _99  and  _100
REMARK   45  A    between atoms: _103  and  _105
REMARK   46  A    between atoms: _105  and  _106
REMARK   47  A    between atoms: _105  and  _108
REMARK   48  A    between atoms: _108  and  _109
REMARK   49  A    between atoms: _110  and  _112
REMARK   50  A    between atoms: _112  and  _113
REMARK   51  A    between atoms: _115  and  _117
REMARK   52  A    between atoms: _117  and  _118
REMARK   53  A    between atoms: _117  and  _120
REMARK   54  A    between atoms: _120  and  _121
REMARK   55  A    between atoms: _124  and  _126
REMARK   56  A    between atoms: _126  and  _127
REMARK   57  A    between atoms: _126  and  _129
REMARK   58  A    between atoms: _129  and  _130
REMARK   59  A    between atoms: _130  and  _131
REMARK   60  A    between atoms: _136  and  _138
REMARK   61  A    between atoms: _138  and  _139
REMARK   62  A    between atoms: _138  and  _141
REMARK   63  A    between atoms: _141  and  _142
REMARK   64  A    between atoms: _145  and  _147
REMARK   65  A    between atoms: _147  and  _148
REMARK   66  A    between atoms: _147  and  _150
REMARK   67  A    between atoms: _150  and  _151
REMARK   68  A    between atoms: _154  and  _156
REMARK   69  A    between atoms: _156  and  _157
REMARK   70  A    between atoms: _156  and  _159
REMARK   71  A    between atoms: _159  and  _160
REMARK   72  A    between atoms: _166  and  _168
REMARK   73  A    between atoms: _168  and  _169
REMARK   74  A    between atoms: _168  and  _171
REMARK   75  A    between atoms: _171  and  _172
REMARK   76  A    between atoms: _172  and  _173
REMARK   77  A    between atoms: _178  and  _180
REMARK   78  A    between atoms: _180  and  _181
REMARK   79  A    between atoms: _183  and  _185
REMARK   80  A    between atoms: _185  and  _186
REMARK   81  A    between atoms: _185  and  _188
REMARK   82  A    between atoms: _188  and  _189
REMARK   83  A    between atoms: _194  and  _195
REMARK   84  A    between atoms: _197  and  _199
REMARK   85  A    between atoms: _199  and  _200
REMARK   86  A    between atoms: _199  and  _202
REMARK   87  A    between atoms: _202  and  _203
REMARK   88  A    between atoms: _208  and  _209
REMARK   89  A    between atoms: _211  and  _213
REMARK   90  A    between atoms: _213  and  _214
REMARK   91  A    between atoms: _213  and  _216
REMARK   92  A    between atoms: _216  and  _217
REMARK   93  A    between atoms: _217  and  _218
REMARK   94  A    between atoms: _218  and  _219
REMARK   95  A    between atoms: _219  and  _220
REMARK   96  A    between atoms: _224  and  _226
REMARK   97  A    between atoms: _226  and  _227
REMARK   98  A    between atoms: _226  and  _229
REMARK   99  A    between atoms: _229  and  _230
REMARK  100  A    between atoms: _233  and  _235
REMARK  101  A    between atoms: _235  and  _236
REMARK  102  A    between atoms: _239  and  _241
REMARK  103  A    between atoms: _241  and  _242
REMARK  104  A    between atoms: _241  and  _244
REMARK  105  A    between atoms: _244  and  _245
REMARK  106  A    between atoms: _245  and  _246
REMARK  107  A    between atoms: _246  and  _247
REMARK  108  A    between atoms: _256  and  _258
REMARK  109  A    between atoms: _258  and  _259
REMARK  110  A    between atoms: _258  and  _261
REMARK  111  A    between atoms: _261  and  _262
REMARK  112  A    between atoms: _267  and  _269
REMARK  113  A    between atoms: _269  and  _270
REMARK  114  A    between atoms: _269  and  _272
REMARK  115  A    between atoms: _272  and  _273
REMARK  116  A    between atoms: _278  and  _279
REMARK  117  A    between atoms: _281  and  _283
REMARK  118  A    between atoms: _283  and  _284
REMARK  119  A    between atoms: _287  and  _289
REMARK  120  A    between atoms: _289  and  _290
REMARK  121  A    between atoms: _289  and  _292
REMARK  122  A    between atoms: _295  and  _297
REMARK  123  A    between atoms: _297  and  _298
REMARK  124  A    between atoms: _297  and  _300
REMARK  125  A    between atoms: _303  and  _305
REMARK  126  A    between atoms: _305  and  _306
REMARK  127  A    between atoms: _305  and  _308
REMARK  128  A    between atoms: _308  and  _309
REMARK  129  A    between atoms: _309  and  _310
REMARK  130  A    between atoms: _313  and  _315
REMARK  131  A    between atoms: _315  and  _316
REMARK  132  A    between atoms: _315  and  _318
REMARK  133  A    between atoms: _318  and  _319
REMARK  134  A    between atoms: _322  and  _324
REMARK  135  A    between atoms: _324  and  _325
REMARK  136  A    between atoms: _324  and  _327
REMARK  137  A    between atoms: _327  and  _328
REMARK  138  A    between atoms: _328  and  _330
REMARK  139  A    between atoms: _330  and  MN_635
REMARK  140  A    between atoms: _331  and  _333
REMARK  141  A    between atoms: _333  and  _334
REMARK  142  A    between atoms: _333  and  _336
REMARK  143  A    between atoms: _336  and  _337
REMARK  144  A    between atoms: _340  and  _342
REMARK  145  A    between atoms: _342  and  _343
REMARK  146  A    between atoms: _342  and  _345
REMARK  147  A    between atoms: _345  and  _346
REMARK  148  A    between atoms: _353  and  _354
REMARK  149  A    between atoms: _359  and  _361
REMARK  150  A    between atoms: _361  and  _362
REMARK  151  A    between atoms: _364  and  _366
REMARK  152  A    between atoms: _366  and  _367
REMARK  153  A    between atoms: _366  and  _369
REMARK  154  A    between atoms: _369  and  _370
REMARK  155  A    between atoms: _373  and  _375
REMARK  156  A    between atoms: _375  and  _376
REMARK  157  A    between atoms: _378  and  _380
REMARK  158  A    between atoms: _380  and  _381
REMARK  159  A    between atoms: _380  and  _383
REMARK  160  A    between atoms: _383  and  _384
REMARK  161  A    between atoms: _394  and  _396
REMARK  162  A    between atoms: _396  and  _397
REMARK  163  A    between atoms: _400  and  _402
REMARK  164  A    between atoms: _402  and  _403
REMARK  165  A    between atoms: _402  and  _405
REMARK  166  A    between atoms: _405  and  _406
REMARK  167  A    between atoms: _412  and  _414
REMARK  168  A    between atoms: _414  and  _415
REMARK  169  A    between atoms: _414  and  _417
REMARK  170  A    between atoms: _417  and  _418
REMARK  171  A    between atoms: _428  and  _430
REMARK  172  A    between atoms: _430  and  _431
REMARK  173  A    between atoms: _430  and  _433
REMARK  174  A    between atoms: _433  and  _434
REMARK  175  A    between atoms: _437  and  _439
REMARK  176  A    between atoms: _439  and  _440
REMARK  177  A    between atoms: _439  and  _442
REMARK  178  A    between atoms: _442  and  _443
REMARK  179  A    between atoms: _446  and  _448
REMARK  180  A    between atoms: _448  and  _449
REMARK  181  A    between atoms: _448  and  _451
REMARK  182  A    between atoms: _451  and  _452
REMARK  183  A    between atoms: _462  and  _464
REMARK  184  A    between atoms: _464  and  _465
REMARK  185  A    between atoms: _464  and  _467
REMARK  186  A    between atoms: _467  and  _468
REMARK  187  A    between atoms: _468  and  _469
REMARK  188  A    between atoms: _469  and  _470
REMARK  189  A    between atoms: _479  and  _481
REMARK  190  A    between atoms: _481  and  _482
REMARK  191  A    between atoms: _481  and  _484
REMARK  192  A    between atoms: _484  and  _485
REMARK  193  A    between atoms: _488  and  _490
REMARK  194  A    between atoms: _490  and  _491
REMARK  195  A    between atoms: _490  and  _493
REMARK  196  A    between atoms: _493  and  _494
REMARK  197  A    between atoms: _500  and  _502
REMARK  198  A    between atoms: _502  and  _503
REMARK  199  A    between atoms: _505  and  _507
REMARK  200  A    between atoms: _507  and  _508
REMARK  201  A    between atoms: _507  and  _510
REMARK  202  A    between atoms: _510  and  _511
REMARK  203  A    between atoms: _511  and  _512
REMARK  204  A    between atoms: _512  and  _513
REMARK  205  A    between atoms: _522  and  _524
REMARK  206  A    between atoms: _524  and  _525
REMARK  207  A    between atoms: _524  and  _527
REMARK  208  A    between atoms: _527  and  _528
REMARK  209  A    between atoms: _528  and  _529
REMARK  210  A    between atoms: _529  and  _530
REMARK  211  A    between atoms: _530  and  _531
REMARK  212  A    between atoms: _535  and  _537
REMARK  213  A    between atoms: _537  and  _538
REMARK  214  A    between atoms: _540  and  _542
REMARK  215  A    between atoms: _542  and  _543
REMARK  216  A    between atoms: _542  and  _545
REMARK  217  A    between atoms: _548  and  _550
REMARK  218  A    between atoms: _550  and  _551
REMARK  219  A    between atoms: _550  and  _553
REMARK  220  A    between atoms: _553  and  _554
REMARK  221  A    between atoms: _556  and  _558
REMARK  222  A    between atoms: _558  and  _559
REMARK  223  A    between atoms: _558  and  _561
REMARK  224  A    between atoms: _561  and  _562
REMARK  225  A    between atoms: _567  and  _569
REMARK  226  A    between atoms: _569  and  _570
REMARK  227  A    between atoms: _572  and  _574
REMARK  228  A    between atoms: _574  and  _575
REMARK  229  A    between atoms: _574  and  _577
REMARK  230  A    between atoms: _577  and  _578
REMARK  231  A    between atoms: _584  and  _586
REMARK  232  A    between atoms: _586  and  _587
REMARK  233  A    between atoms: _586  and  _589
REMARK  234  A    between atoms: _589  and  _590
REMARK  235  A    between atoms: _596  and  _598
REMARK  236  A    between atoms: _598  and  _599
REMARK  237  A    between atoms: _598  and  _601
REMARK  238  A    between atoms: _601  and  _602
REMARK  239  A    between atoms: _605  and  _607
REMARK  240  A    between atoms: _607  and  _608
REMARK  241  A    between atoms: _607  and  _610
REMARK  242  A    between atoms: _610  and  _611
REMARK  243  A    between atoms: _611  and  _612
REMARK  244  A    between atoms: _612  and  _613
REMARK  245  A    between atoms: _613  and  _614
REMARK  246  A    between atoms: _618  and  _620
REMARK  247  A    between atoms: _620  and  _621
REMARK  248  A    between atoms: _620  and  _623
REMARK  249  A    between atoms: _623  and  _624
REMARK  250  A    between atoms: _624  and  _625
REMARK  251  A    between atoms: _625  and  _626
REMARK                            x       y       z     vdW  Elec       q    Type
REMARK                         _______ _______ _______ _____ _____    ______ ____
ROOT
ATOM      1  O   HOH     1      -0.406  23.921  18.732  0.00  0.00    +0.000 OA
ENDROOT
TORSDOF 0
REMARK  Name = ../refined-set-2016/2am4/2am4_pocket.pdb
REMARK  251 active torsions:
REMARK  status: ('A' for Active; 'I' for Inactive)
REMARK    1  A    between atoms: _1  and  _3
REMARK    2  A    between atoms: _3  and  _4
REMARK    3  A    between atoms: _3  and  _6
REMARK    4  A    between atoms: _6  and  _7
REMARK    5  A    between atoms: _10  and  _12
REMARK    6  A    between atoms: _12  and  _13
REMARK    7  A    between atoms: _12  and  _15
REMARK    8  A    between atoms: _18  and  _20
REMARK    9  A    between atoms: _20  and  _21
REMARK   10  A    between atoms: _20  and  _23
REMARK   11  A    between atoms: _23  and  _24
REMARK   12  A    between atoms: _27  and  _29
REMARK   13  A    between atoms: _29  and  _30
REMARK   14  A    between atoms: _33  and  _35
REMARK   15  A    between atoms: _35  and  _36
REMARK   16  A    between atoms: _35  and  _38
REMARK   17  A    between atoms: _38  and  _39
REMARK   18  A    between atoms: _39  and  _109
REMARK   19  A    between atoms: _40  and  _42
REMARK   20  A    between atoms: _42  and  _43
REMARK   21  A    between atoms: _42  and  _45
REMARK   22  A    between atoms: _45  and  _46
REMARK   23  A    between atoms: _49  and  _51
REMARK   24  A    between atoms: _51  and  _52
REMARK   25  A    between atoms: _51  and  _54
REMARK   26  A    between atoms: _54  and  _55
REMARK   27  A    between atoms: _55  and  _56
REMARK   28  A    between atoms: _56  and  _57
REMARK   29  A    between atoms: _66  and  _68
REMARK   30  A    between atoms: _68  and  _69
REMARK   31  A    between atoms: _68  and  _71
REMARK   32  A    between atoms: _74  and  _76
REMARK   33  A    between atoms: _76  and  _77
REMARK   34  A    between atoms: _76  and  _79
REMARK   35  A    between atoms: _79  and  _80
REMARK   36  A    between atoms: _82  and  _84
REMARK   37  A    between atoms: _84  and  _85
REMARK   38  A    between atoms: _84  and  _87
REMARK   39  A    between atoms: _87  and  _88
REMARK   40  A    between atoms: _88  and  _89
REMARK   41  A    between atoms: _94  and  _96
REMARK   42  A    between atoms: _96  and  _97
REMARK   43  A    between atoms: _96  and  _99
REMARK   44  A    between atoms: _99  and  _100
REMARK   45  A    between atoms: _103  and  _105
REMARK   46  A    between atoms: _105  and  _106
REMARK   47  A    between atoms: _105  and  _108
REMARK   48  A    between atoms: _108  and  _109
REMARK   49  A    between atoms: _110  and  _112
REMARK   50  A    between atoms: _112  and  _113
REMARK   51  A    between atoms: _115  and  _117
REMARK   52  A    between atoms: _117  and  _118
REMARK   53  A    between atoms: _117  and  _120
REMARK   54  A    between atoms: _120  and  _121
REMARK   55  A    between atoms: _124  and  _126
REMARK   56  A    between atoms: _126  and  _127
REMARK   57  A    between atoms: _126  and  _129
REMARK   58  A    between atoms: _129  and  _130
REMARK   59  A    between atoms: _130  and  _131
REMARK   60  A    between atoms: _136  and  _138
REMARK   61  A    between atoms: _138  and  _139
REMARK   62  A    between atoms: _138  and  _141
REMARK   63  A    between atoms: _141  and  _142
REMARK   64  A    between atoms: _145  and  _147
REMARK   65  A    between atoms: _147  and  _148
REMARK   66  A    between atoms: _147  and  _150
REMARK   67  A    between atoms: _150  and  _151
REMARK   68  A    between atoms: _154  and  _156
REMARK   69  A    between atoms: _156  and  _157
REMARK   70  A    between atoms: _156  and  _159
REMARK   71  A    between atoms: _159  and  _160
REMARK   72  A    between atoms: _166  and  _168
REMARK   73  A    between atoms: _168  and  _169
REMARK   74  A    between atoms: _168  and  _171
REMARK   75  A    between atoms: _171  and  _172
REMARK   76  A    between atoms: _172  and  _173
REMARK   77  A    between atoms: _178  and  _180
REMARK   78  A    between atoms: _180  and  _181
REMARK   79  A    between atoms: _183  and  _185
REMARK   80  A    between atoms: _185  and  _186
REMARK   81  A    between atoms: _185  and  _188
REMARK   82  A    between atoms: _188  and  _189
REMARK   83  A    between atoms: _194  and  _195
REMARK   84  A    between atoms: _197  and  _199
REMARK   85  A    between atoms: _199  and  _200
REMARK   86  A    between atoms: _199  and  _202
REMARK   87  A    between atoms: _202  and  _203
REMARK   88  A    between atoms: _208  and  _209
REMARK   89  A    between atoms: _211  and  _213
REMARK   90  A    between atoms: _213  and  _214
REMARK   91  A    between atoms: _213  and  _216
REMARK   92  A    between atoms: _216  and  _217
REMARK   93  A    between atoms: _217  and  _218
REMARK   94  A    between atoms: _218  and  _219
REMARK   95  A    between atoms: _219  and  _220
REMARK   96  A    between atoms: _224  and  _226
REMARK   97  A    between atoms: _226  and  _227
REMARK   98  A    between atoms: _226  and  _229
REMARK   99  A    between atoms: _229  and  _230
REMARK  100  A    between atoms: _233  and  _235
REMARK  101  A    between atoms: _235  and  _236
REMARK  102  A    between atoms: _239  and  _241
REMARK  103  A    between atoms: _241  and  _242
REMARK  104  A    between atoms: _241  and  _244
REMARK  105  A    between atoms: _244  and  _245
REMARK  106  A    between atoms: _245  and  _246
REMARK  107  A    between atoms: _246  and  _247
REMARK  108  A    between atoms: _256  and  _258
REMARK  109  A    between atoms: _258  and  _259
REMARK  110  A    between atoms: _258  and  _261
REMARK  111  A    between atoms: _261  and  _262
REMARK  112  A    between atoms: _267  and  _269
REMARK  113  A    between atoms: _269  and  _270
REMARK  114  A    between atoms: _269  and  _272
REMARK  115  A    between atoms: _272  and  _273
REMARK  116  A    between atoms: _278  and  _279
REMARK  117  A    between atoms: _281  and  _283
REMARK  118  A    between atoms: _283  and  _284
REMARK  119  A    between atoms: _287  and  _289
REMARK  120  A    between atoms: _289  and  _290
REMARK  121  A    between atoms: _289  and  _292
REMARK  122  A    between atoms: _295  and  _297
REMARK  123  A    between atoms: _297  and  _298
REMARK  124  A    between atoms: _297  and  _300
REMARK  125  A    between atoms: _303  and  _305
REMARK  126  A    between atoms: _305  and  _306
REMARK  127  A    between atoms: _305  and  _308
REMARK  128  A    between atoms: _308  and  _309
REMARK  129  A    between atoms: _309  and  _310
REMARK  130  A    between atoms: _313  and  _315
REMARK  131  A    between atoms: _315  and  _316
REMARK  132  A    between atoms: _315  and  _318
REMARK  133  A    between atoms: _318  and  _319
REMARK  134  A    between atoms: _322  and  _324
REMARK  135  A    between atoms: _324  and  _325
REMARK  136  A    between atoms: _324  and  _327
REMARK  137  A    between atoms: _327  and  _328
REMARK  138  A    between atoms: _328  and  _330
REMARK  139  A    between atoms: _330  and  MN_635
REMARK  140  A    between atoms: _331  and  _333
REMARK  141  A    between atoms: _333  and  _334
REMARK  142  A    between atoms: _333  and  _336
REMARK  143  A    between atoms: _336  and  _337
REMARK  144  A    between atoms: _340  and  _342
REMARK  145  A    between atoms: _342  and  _343
REMARK  146  A    between atoms: _342  and  _345
REMARK  147  A    between atoms: _345  and  _346
REMARK  148  A    between atoms: _353  and  _354
REMARK  149  A    between atoms: _359  and  _361
REMARK  150  A    between atoms: _361  and  _362
REMARK  151  A    between atoms: _364  and  _366
REMARK  152  A    between atoms: _366  and  _367
REMARK  153  A    between atoms: _366  and  _369
REMARK  154  A    between atoms: _369  and  _370
REMARK  155  A    between atoms: _373  and  _375
REMARK  156  A    between atoms: _375  and  _376
REMARK  157  A    between atoms: _378  and  _380
REMARK  158  A    between atoms: _380  and  _381
REMARK  159  A    between atoms: _380  and  _383
REMARK  160  A    between atoms: _383  and  _384
REMARK  161  A    between atoms: _394  and  _396
REMARK  162  A    between atoms: _396  and  _397
REMARK  163  A    between atoms: _400  and  _402
REMARK  164  A    between atoms: _402  and  _403
REMARK  165  A    between atoms: _402  and  _405
REMARK  166  A    between atoms: _405  and  _406
REMARK  167  A    between atoms: _412  and  _414
REMARK  168  A    between atoms: _414  and  _415
REMARK  169  A    between atoms: _414  and  _417
REMARK  170  A    between atoms: _417  and  _418
REMARK  171  A    between atoms: _428  and  _430
REMARK  172  A    between atoms: _430  and  _431
REMARK  173  A    between atoms: _430  and  _433
REMARK  174  A    between atoms: _433  and  _434
REMARK  175  A    between atoms: _437  and  _439
REMARK  176  A    between atoms: _439  and  _440
REMARK  177  A    between atoms: _439  and  _442
REMARK  178  A    between atoms: _442  and  _443
REMARK  179  A    between atoms: _446  and  _448
REMARK  180  A    between atoms: _448  and  _449
REMARK  181  A    between atoms: _448  and  _451
REMARK  182  A    between atoms: _451  and  _452
REMARK  183  A    between atoms: _462  and  _464
REMARK  184  A    between atoms: _464  and  _465
REMARK  185  A    between atoms: _464  and  _467
REMARK  186  A    between atoms: _467  and  _468
REMARK  187  A    between atoms: _468  and  _469
REMARK  188  A    between atoms: _469  and  _470
REMARK  189  A    between atoms: _479  and  _481
REMARK  190  A    between atoms: _481  and  _482
REMARK  191  A    between atoms: _481  and  _484
REMARK  192  A    between atoms: _484  and  _485
REMARK  193  A    between atoms: _488  and  _490
REMARK  194  A    between atoms: _490  and  _491
REMARK  195  A    between atoms: _490  and  _493
REMARK  196  A    between atoms: _493  and  _494
REMARK  197  A    between atoms: _500  and  _502
REMARK  198  A    between atoms: _502  and  _503
REMARK  199  A    between atoms: _505  and  _507
REMARK  200  A    between atoms: _507  and  _508
REMARK  201  A    between atoms: _507  and  _510
REMARK  202  A    between atoms: _510  and  _511
REMARK  203  A    between atoms: _511  and  _512
REMARK  204  A    between atoms: _512  and  _513
REMARK  205  A    between atoms: _522  and  _524
REMARK  206  A    between atoms: _524  and  _525
REMARK  207  A    between atoms: _524  and  _527
REMARK  208  A    between atoms: _527  and  _528
REMARK  209  A    between atoms: _528  and  _529
REMARK  210  A    between atoms: _529  and  _530
REMARK  211  A    between atoms: _530  and  _531
REMARK  212  A    between atoms: _535  and  _537
REMARK  213  A    between atoms: _537  and  _538
REMARK  214  A    between atoms: _540  and  _542
REMARK  215  A    between atoms: _542  and  _543
REMARK  216  A    between atoms: _542  and  _545
REMARK  217  A    between atoms: _548  and  _550
REMARK  218  A    between atoms: _550  and  _551
REMARK  219  A    between atoms: _550  and  _553
REMARK  220  A    between atoms: _553  and  _554
REMARK  221  A    between atoms: _556  and  _558
REMARK  222  A    between atoms: _558  and  _559
REMARK  223  A    between atoms: _558  and  _561
REMARK  224  A    between atoms: _561  and  _562
REMARK  225  A    between atoms: _567  and  _569
REMARK  226  A    between atoms: _569  and  _570
REMARK  227  A    between atoms: _572  and  _574
REMARK  228  A    between atoms: _574  and  _575
REMARK  229  A    between atoms: _574  and  _577
REMARK  230  A    between atoms: _577  and  _578
REMARK  231  A    between atoms: _584  and  _586
REMARK  232  A    between atoms: _586  and  _587
REMARK  233  A    between atoms: _586  and  _589
REMARK  234  A    between atoms: _589  and  _590
REMARK  235  A    between atoms: _596  and  _598
REMARK  236  A    between atoms: _598  and  _599
REMARK  237  A    between atoms: _598  and  _601
REMARK  238  A    between atoms: _601  and  _602
REMARK  239  A    between atoms: _605  and  _607
REMARK  240  A    between atoms: _607  and  _608
REMARK  241  A    between atoms: _607  and  _610
REMARK  242  A    between atoms: _610  and  _611
REMARK  243  A    between atoms: _611  and  _612
REMARK  244  A    between atoms: _612  and  _613
REMARK  245  A    between atoms: _613  and  _614
REMARK  246  A    between atoms: _618  and  _620
REMARK  247  A    between atoms: _620  and  _621
REMARK  248  A    between atoms: _620  and  _623
REMARK  249  A    between atoms: _623  and  _624
REMARK  250  A    between atoms: _624  and  _625
REMARK  251  A    between atoms: _625  and  _626
REMARK                            x       y       z     vdW  Elec       q    Type
REMARK                         _______ _______ _______ _____ _____    ______ ____
ROOT
ATOM      1  O   HOH     1       2.984  22.098  20.706  0.00  0.00    +0.000 OA
ENDROOT
TORSDOF 0
REMARK  Name = ../refined-set-2016/2am4/2am4_pocket.pdb
REMARK  251 active torsions:
REMARK  status: ('A' for Active; 'I' for Inactive)
REMARK    1  A    between atoms: _1  and  _3
REMARK    2  A    between atoms: _3  and  _4
REMARK    3  A    between atoms: _3  and  _6
REMARK    4  A    between atoms: _6  and  _7
REMARK    5  A    between atoms: _10  and  _12
REMARK    6  A    between atoms: _12  and  _13
REMARK    7  A    between atoms: _12  and  _15
REMARK    8  A    between atoms: _18  and  _20
REMARK    9  A    between atoms: _20  and  _21
REMARK   10  A    between atoms: _20  and  _23
REMARK   11  A    between atoms: _23  and  _24
REMARK   12  A    between atoms: _27  and  _29
REMARK   13  A    between atoms: _29  and  _30
REMARK   14  A    between atoms: _33  and  _35
REMARK   15  A    between atoms: _35  and  _36
REMARK   16  A    between atoms: _35  and  _38
REMARK   17  A    between atoms: _38  and  _39
REMARK   18  A    between atoms: _39  and  _109
REMARK   19  A    between atoms: _40  and  _42
REMARK   20  A    between atoms: _42  and  _43
REMARK   21  A    between atoms: _42  and  _45
REMARK   22  A    between atoms: _45  and  _46
REMARK   23  A    between atoms: _49  and  _51
REMARK   24  A    between atoms: _51  and  _52
REMARK   25  A    between atoms: _51  and  _54
REMARK   26  A    between atoms: _54  and  _55
REMARK   27  A    between atoms: _55  and  _56
REMARK   28  A    between atoms: _56  and  _57
REMARK   29  A    between atoms: _66  and  _68
REMARK   30  A    between atoms: _68  and  _69
REMARK   31  A    between atoms: _68  and  _71
REMARK   32  A    between atoms: _74  and  _76
REMARK   33  A    between atoms: _76  and  _77
REMARK   34  A    between atoms: _76  and  _79
REMARK   35  A    between atoms: _79  and  _80
REMARK   36  A    between atoms: _82  and  _84
REMARK   37  A    between atoms: _84  and  _85
REMARK   38  A    between atoms: _84  and  _87
REMARK   39  A    between atoms: _87  and  _88
REMARK   40  A    between atoms: _88  and  _89
REMARK   41  A    between atoms: _94  and  _96
REMARK   42  A    between atoms: _96  and  _97
REMARK   43  A    between atoms: _96  and  _99
REMARK   44  A    between atoms: _99  and  _100
REMARK   45  A    between atoms: _103  and  _105
REMARK   46  A    between atoms: _105  and  _106
REMARK   47  A    between atoms: _105  and  _108
REMARK   48  A    between atoms: _108  and  _109
REMARK   49  A    between atoms: _110  and  _112
REMARK   50  A    between atoms: _112  and  _113
REMARK   51  A    between atoms: _115  and  _117
REMARK   52  A    between atoms: _117  and  _118
REMARK   53  A    between atoms: _117  and  _120
REMARK   54  A    between atoms: _120  and  _121
REMARK   55  A    between atoms: _124  and  _126
REMARK   56  A    between atoms: _126  and  _127
REMARK   57  A    between atoms: _126  and  _129
REMARK   58  A    between atoms: _129  and  _130
REMARK   59  A    between atoms: _130  and  _131
REMARK   60  A    between atoms: _136  and  _138
REMARK   61  A    between atoms: _138  and  _139
REMARK   62  A    between atoms: _138  and  _141
REMARK   63  A    between atoms: _141  and  _142
REMARK   64  A    between atoms: _145  and  _147
REMARK   65  A    between atoms: _147  and  _148
REMARK   66  A    between atoms: _147  and  _150
REMARK   67  A    between atoms: _150  and  _151
REMARK   68  A    between atoms: _154  and  _156
REMARK   69  A    between atoms: _156  and  _157
REMARK   70  A    between atoms: _156  and  _159
REMARK   71  A    between atoms: _159  and  _160
REMARK   72  A    between atoms: _166  and  _168
REMARK   73  A    between atoms: _168  and  _169
REMARK   74  A    between atoms: _168  and  _171
REMARK   75  A    between atoms: _171  and  _172
REMARK   76  A    between atoms: _172  and  _173
REMARK   77  A    between atoms: _178  and  _180
REMARK   78  A    between atoms: _180  and  _181
REMARK   79  A    between atoms: _183  and  _185
REMARK   80  A    between atoms: _185  and  _186
REMARK   81  A    between atoms: _185  and  _188
REMARK   82  A    between atoms: _188  and  _189
REMARK   83  A    between atoms: _194  and  _195
REMARK   84  A    between atoms: _197  and  _199
REMARK   85  A    between atoms: _199  and  _200
REMARK   86  A    between atoms: _199  and  _202
REMARK   87  A    between atoms: _202  and  _203
REMARK   88  A    between atoms: _208  and  _209
REMARK   89  A    between atoms: _211  and  _213
REMARK   90  A    between atoms: _213  and  _214
REMARK   91  A    between atoms: _213  and  _216
REMARK   92  A    between atoms: _216  and  _217
REMARK   93  A    between atoms: _217  and  _218
REMARK   94  A    between atoms: _218  and  _219
REMARK   95  A    between atoms: _219  and  _220
REMARK   96  A    between atoms: _224  and  _226
REMARK   97  A    between atoms: _226  and  _227
REMARK   98  A    between atoms: _226  and  _229
REMARK   99  A    between atoms: _229  and  _230
REMARK  100  A    between atoms: _233  and  _235
REMARK  101  A    between atoms: _235  and  _236
REMARK  102  A    between atoms: _239  and  _241
REMARK  103  A    between atoms: _241  and  _242
REMARK  104  A    between atoms: _241  and  _244
REMARK  105  A    between atoms: _244  and  _245
REMARK  106  A    between atoms: _245  and  _246
REMARK  107  A    between atoms: _246  and  _247
REMARK  108  A    between atoms: _256  and  _258
REMARK  109  A    between atoms: _258  and  _259
REMARK  110  A    between atoms: _258  and  _261
REMARK  111  A    between atoms: _261  and  _262
REMARK  112  A    between atoms: _267  and  _269
REMARK  113  A    between atoms: _269  and  _270
REMARK  114  A    between atoms: _269  and  _272
REMARK  115  A    between atoms: _272  and  _273
REMARK  116  A    between atoms: _278  and  _279
REMARK  117  A    between atoms: _281  and  _283
REMARK  118  A    between atoms: _283  and  _284
REMARK  119  A    between atoms: _287  and  _289
REMARK  120  A    between atoms: _289  and  _290
REMARK  121  A    between atoms: _289  and  _292
REMARK  122  A    between atoms: _295  and  _297
REMARK  123  A    between atoms: _297  and  _298
REMARK  124  A    between atoms: _297  and  _300
REMARK  125  A    between atoms: _303  and  _305
REMARK  126  A    between atoms: _305  and  _306
REMARK  127  A    between atoms: _305  and  _308
REMARK  128  A    between atoms: _308  and  _309
REMARK  129  A    between atoms: _309  and  _310
REMARK  130  A    between atoms: _313  and  _315
REMARK  131  A    between atoms: _315  and  _316
REMARK  132  A    between atoms: _315  and  _318
REMARK  133  A    between atoms: _318  and  _319
REMARK  134  A    between atoms: _322  and  _324
REMARK  135  A    between atoms: _324  and  _325
REMARK  136  A    between atoms: _324  and  _327
REMARK  137  A    between atoms: _327  and  _328
REMARK  138  A    between atoms: _328  and  _330
REMARK  139  A    between atoms: _330  and  MN_635
REMARK  140  A    between atoms: _331  and  _333
REMARK  141  A    between atoms: _333  and  _334
REMARK  142  A    between atoms: _333  and  _336
REMARK  143  A    between atoms: _336  and  _337
REMARK  144  A    between atoms: _340  and  _342
REMARK  145  A    between atoms: _342  and  _343
REMARK  146  A    between atoms: _342  and  _345
REMARK  147  A    between atoms: _345  and  _346
REMARK  148  A    between atoms: _353  and  _354
REMARK  149  A    between atoms: _359  and  _361
REMARK  150  A    between atoms: _361  and  _362
REMARK  151  A    between atoms: _364  and  _366
REMARK  152  A    between atoms: _366  and  _367
REMARK  153  A    between atoms: _366  and  _369
REMARK  154  A    between atoms: _369  and  _370
REMARK  155  A    between atoms: _373  and  _375
REMARK  156  A    between atoms: _375  and  _376
REMARK  157  A    between atoms: _378  and  _380
REMARK  158  A    between atoms: _380  and  _381
REMARK  159  A    between atoms: _380  and  _383
REMARK  160  A    between atoms: _383  and  _384
REMARK  161  A    between atoms: _394  and  _396
REMARK  162  A    between atoms: _396  and  _397
REMARK  163  A    between atoms: _400  and  _402
REMARK  164  A    between atoms: _402  and  _403
REMARK  165  A    between atoms: _402  and  _405
REMARK  166  A    between atoms: _405  and  _406
REMARK  167  A    between atoms: _412  and  _414
REMARK  168  A    between atoms: _414  and  _415
REMARK  169  A    between atoms: _414  and  _417
REMARK  170  A    between atoms: _417  and  _418
REMARK  171  A    between atoms: _428  and  _430
REMARK  172  A    between atoms: _430  and  _431
REMARK  173  A    between atoms: _430  and  _433
REMARK  174  A    between atoms: _433  and  _434
REMARK  175  A    between atoms: _437  and  _439
REMARK  176  A    between atoms: _439  and  _440
REMARK  177  A    between atoms: _439  and  _442
REMARK  178  A    between atoms: _442  and  _443
REMARK  179  A    between atoms: _446  and  _448
REMARK  180  A    between atoms: _448  and  _449
REMARK  181  A    between atoms: _448  and  _451
REMARK  182  A    between atoms: _451  and  _452
REMARK  183  A    between atoms: _462  and  _464
REMARK  184  A    between atoms: _464  and  _465
REMARK  185  A    between atoms: _464  and  _467
REMARK  186  A    between atoms: _467  and  _468
REMARK  187  A    between atoms: _468  and  _469
REMARK  188  A    between atoms: _469  and  _470
REMARK  189  A    between atoms: _479  and  _481
REMARK  190  A    between atoms: _481  and  _482
REMARK  191  A    between atoms: _481  and  _484
REMARK  192  A    between atoms: _484  and  _485
REMARK  193  A    between atoms: _488  and  _490
REMARK  194  A    between atoms: _490  and  _491
REMARK  195  A    between atoms: _490  and  _493
REMARK  196  A    between atoms: _493  and  _494
REMARK  197  A    between atoms: _500  and  _502
REMARK  198  A    between atoms: _502  and  _503
REMARK  199  A    between atoms: _505  and  _507
REMARK  200  A    between atoms: _507  and  _508
REMARK  201  A    between atoms: _507  and  _510
REMARK  202  A    between atoms: _510  and  _511
REMARK  203  A    between atoms: _511  and  _512
REMARK  204  A    between atoms: _512  and  _513
REMARK  205  A    between atoms: _522  and  _524
REMARK  206  A    between atoms: _524  and  _525
REMARK  207  A    between atoms: _524  and  _527
REMARK  208  A    between atoms: _527  and  _528
REMARK  209  A    between atoms: _528  and  _529
REMARK  210  A    between atoms: _529  and  _530
REMARK  211  A    between atoms: _530  and  _531
REMARK  212  A    between atoms: _535  and  _537
REMARK  213  A    between atoms: _537  and  _538
REMARK  214  A    between atoms: _540  and  _542
REMARK  215  A    between atoms: _542  and  _543
REMARK  216  A    between atoms: _542  and  _545
REMARK  217  A    between atoms: _548  and  _550
REMARK  218  A    between atoms: _550  and  _551
REMARK  219  A    between atoms: _550  and  _553
REMARK  220  A    between atoms: _553  and  _554
REMARK  221  A    between atoms: _556  and  _558
REMARK  222  A    between atoms: _558  and  _559
REMARK  223  A    between atoms: _558  and  _561
REMARK  224  A    between atoms: _561  and  _562
REMARK  225  A    between atoms: _567  and  _569
REMARK  226  A    between atoms: _569  and  _570
REMARK  227  A    between atoms: _572  and  _574
REMARK  228  A    between atoms: _574  and  _575
REMARK  229  A    between atoms: _574  and  _577
REMARK  230  A    between atoms: _577  and  _578
REMARK  231  A    between atoms: _584  and  _586
REMARK  232  A    between atoms: _586  and  _587
REMARK  233  A    between atoms: _586  and  _589
REMARK  234  A    between atoms: _589  and  _590
REMARK  235  A    between atoms: _596  and  _598
REMARK  236  A    between atoms: _598  and  _599
REMARK  237  A    between atoms: _598  and  _601
REMARK  238  A    between atoms: _601  and  _602
REMARK  239  A    between atoms: _605  and  _607
REMARK  240  A    between atoms: _607  and  _608
REMARK  241  A    between atoms: _607  and  _610
REMARK  242  A    between atoms: _610  and  _611
REMARK  243  A    between atoms: _611  and  _612
REMARK  244  A    between atoms: _612  and  _613
REMARK  245  A    between atoms: _613  and  _614
REMARK  246  A    between atoms: _618  and  _620
REMARK  247  A    between atoms: _620  and  _621
REMARK  248  A    between atoms: _620  and  _623
REMARK  249  A    between atoms: _623  and  _624
REMARK  250  A    between atoms: _624  and  _625
REMARK  251  A    between atoms: _625  and  _626
REMARK                            x       y       z     vdW  Elec       q    Type
REMARK                         _______ _______ _______ _____ _____    ______ ____
ROOT
ATOM      1  O   HOH     1      -4.824  24.198   1.853  0.00  0.00    +0.000 OA
ENDROOT
TORSDOF 0
REMARK  Name = ../refined-set-2016/2am4/2am4_pocket.pdb
REMARK  251 active torsions:
REMARK  status: ('A' for Active; 'I' for Inactive)
REMARK    1  A    between atoms: _1  and  _3
REMARK    2  A    between atoms: _3  and  _4
REMARK    3  A    between atoms: _3  and  _6
REMARK    4  A    between atoms: _6  and  _7
REMARK    5  A    between atoms: _10  and  _12
REMARK    6  A    between atoms: _12  and  _13
REMARK    7  A    between atoms: _12  and  _15
REMARK    8  A    between atoms: _18  and  _20
REMARK    9  A    between atoms: _20  and  _21
REMARK   10  A    between atoms: _20  and  _23
REMARK   11  A    between atoms: _23  and  _24
REMARK   12  A    between atoms: _27  and  _29
REMARK   13  A    between atoms: _29  and  _30
REMARK   14  A    between atoms: _33  and  _35
REMARK   15  A    between atoms: _35  and  _36
REMARK   16  A    between atoms: _35  and  _38
REMARK   17  A    between atoms: _38  and  _39
REMARK   18  A    between atoms: _39  and  _109
REMARK   19  A    between atoms: _40  and  _42
REMARK   20  A    between atoms: _42  and  _43
REMARK   21  A    between atoms: _42  and  _45
REMARK   22  A    between atoms: _45  and  _46
REMARK   23  A    between atoms: _49  and  _51
REMARK   24  A    between atoms: _51  and  _52
REMARK   25  A    between atoms: _51  and  _54
REMARK   26  A    between atoms: _54  and  _55
REMARK   27  A    between atoms: _55  and  _56
REMARK   28  A    between atoms: _56  and  _57
REMARK   29  A    between atoms: _66  and  _68
REMARK   30  A    between atoms: _68  and  _69
REMARK   31  A    between atoms: _68  and  _71
REMARK   32  A    between atoms: _74  and  _76
REMARK   33  A    between atoms: _76  and  _77
REMARK   34  A    between atoms: _76  and  _79
REMARK   35  A    between atoms: _79  and  _80
REMARK   36  A    between atoms: _82  and  _84
REMARK   37  A    between atoms: _84  and  _85
REMARK   38  A    between atoms: _84  and  _87
REMARK   39  A    between atoms: _87  and  _88
REMARK   40  A    between atoms: _88  and  _89
REMARK   41  A    between atoms: _94  and  _96
REMARK   42  A    between atoms: _96  and  _97
REMARK   43  A    between atoms: _96  and  _99
REMARK   44  A    between atoms: _99  and  _100
REMARK   45  A    between atoms: _103  and  _105
REMARK   46  A    between atoms: _105  and  _106
REMARK   47  A    between atoms: _105  and  _108
REMARK   48  A    between atoms: _108  and  _109
REMARK   49  A    between atoms: _110  and  _112
REMARK   50  A    between atoms: _112  and  _113
REMARK   51  A    between atoms: _115  and  _117
REMARK   52  A    between atoms: _117  and  _118
REMARK   53  A    between atoms: _117  and  _120
REMARK   54  A    between atoms: _120  and  _121
REMARK   55  A    between atoms: _124  and  _126
REMARK   56  A    between atoms: _126  and  _127
REMARK   57  A    between atoms: _126  and  _129
REMARK   58  A    between atoms: _129  and  _130
REMARK   59  A    between atoms: _130  and  _131
REMARK   60  A    between atoms: _136  and  _138
REMARK   61  A    between atoms: _138  and  _139
REMARK   62  A    between atoms: _138  and  _141
REMARK   63  A    between atoms: _141  and  _142
REMARK   64  A    between atoms: _145  and  _147
REMARK   65  A    between atoms: _147  and  _148
REMARK   66  A    between atoms: _147  and  _150
REMARK   67  A    between atoms: _150  and  _151
REMARK   68  A    between atoms: _154  and  _156
REMARK   69  A    between atoms: _156  and  _157
REMARK   70  A    between atoms: _156  and  _159
REMARK   71  A    between atoms: _159  and  _160
REMARK   72  A    between atoms: _166  and  _168
REMARK   73  A    between atoms: _168  and  _169
REMARK   74  A    between atoms: _168  and  _171
REMARK   75  A    between atoms: _171  and  _172
REMARK   76  A    between atoms: _172  and  _173
REMARK   77  A    between atoms: _178  and  _180
REMARK   78  A    between atoms: _180  and  _181
REMARK   79  A    between atoms: _183  and  _185
REMARK   80  A    between atoms: _185  and  _186
REMARK   81  A    between atoms: _185  and  _188
REMARK   82  A    between atoms: _188  and  _189
REMARK   83  A    between atoms: _194  and  _195
REMARK   84  A    between atoms: _197  and  _199
REMARK   85  A    between atoms: _199  and  _200
REMARK   86  A    between atoms: _199  and  _202
REMARK   87  A    between atoms: _202  and  _203
REMARK   88  A    between atoms: _208  and  _209
REMARK   89  A    between atoms: _211  and  _213
REMARK   90  A    between atoms: _213  and  _214
REMARK   91  A    between atoms: _213  and  _216
REMARK   92  A    between atoms: _216  and  _217
REMARK   93  A    between atoms: _217  and  _218
REMARK   94  A    between atoms: _218  and  _219
REMARK   95  A    between atoms: _219  and  _220
REMARK   96  A    between atoms: _224  and  _226
REMARK   97  A    between atoms: _226  and  _227
REMARK   98  A    between atoms: _226  and  _229
REMARK   99  A    between atoms: _229  and  _230
REMARK  100  A    between atoms: _233  and  _235
REMARK  101  A    between atoms: _235  and  _236
REMARK  102  A    between atoms: _239  and  _241
REMARK  103  A    between atoms: _241  and  _242
REMARK  104  A    between atoms: _241  and  _244
REMARK  105  A    between atoms: _244  and  _245
REMARK  106  A    between atoms: _245  and  _246
REMARK  107  A    between atoms: _246  and  _247
REMARK  108  A    between atoms: _256  and  _258
REMARK  109  A    between atoms: _258  and  _259
REMARK  110  A    between atoms: _258  and  _261
REMARK  111  A    between atoms: _261  and  _262
REMARK  112  A    between atoms: _267  and  _269
REMARK  113  A    between atoms: _269  and  _270
REMARK  114  A    between atoms: _269  and  _272
REMARK  115  A    between atoms: _272  and  _273
REMARK  116  A    between atoms: _278  and  _279
REMARK  117  A    between atoms: _281  and  _283
REMARK  118  A    between atoms: _283  and  _284
REMARK  119  A    between atoms: _287  and  _289
REMARK  120  A    between atoms: _289  and  _290
REMARK  121  A    between atoms: _289  and  _292
REMARK  122  A    between atoms: _295  and  _297
REMARK  123  A    between atoms: _297  and  _298
REMARK  124  A    between atoms: _297  and  _300
REMARK  125  A    between atoms: _303  and  _305
REMARK  126  A    between atoms: _305  and  _306
REMARK  127  A    between atoms: _305  and  _308
REMARK  128  A    between atoms: _308  and  _309
REMARK  129  A    between atoms: _309  and  _310
REMARK  130  A    between atoms: _313  and  _315
REMARK  131  A    between atoms: _315  and  _316
REMARK  132  A    between atoms: _315  and  _318
REMARK  133  A    between atoms: _318  and  _319
REMARK  134  A    between atoms: _322  and  _324
REMARK  135  A    between atoms: _324  and  _325
REMARK  136  A    between atoms: _324  and  _327
REMARK  137  A    between atoms: _327  and  _328
REMARK  138  A    between atoms: _328  and  _330
REMARK  139  A    between atoms: _330  and  MN_635
REMARK  140  A    between atoms: _331  and  _333
REMARK  141  A    between atoms: _333  and  _334
REMARK  142  A    between atoms: _333  and  _336
REMARK  143  A    between atoms: _336  and  _337
REMARK  144  A    between atoms: _340  and  _342
REMARK  145  A    between atoms: _342  and  _343
REMARK  146  A    between atoms: _342  and  _345
REMARK  147  A    between atoms: _345  and  _346
REMARK  148  A    between atoms: _353  and  _354
REMARK  149  A    between atoms: _359  and  _361
REMARK  150  A    between atoms: _361  and  _362
REMARK  151  A    between atoms: _364  and  _366
REMARK  152  A    between atoms: _366  and  _367
REMARK  153  A    between atoms: _366  and  _369
REMARK  154  A    between atoms: _369  and  _370
REMARK  155  A    between atoms: _373  and  _375
REMARK  156  A    between atoms: _375  and  _376
REMARK  157  A    between atoms: _378  and  _380
REMARK  158  A    between atoms: _380  and  _381
REMARK  159  A    between atoms: _380  and  _383
REMARK  160  A    between atoms: _383  and  _384
REMARK  161  A    between atoms: _394  and  _396
REMARK  162  A    between atoms: _396  and  _397
REMARK  163  A    between atoms: _400  and  _402
REMARK  164  A    between atoms: _402  and  _403
REMARK  165  A    between atoms: _402  and  _405
REMARK  166  A    between atoms: _405  and  _406
REMARK  167  A    between atoms: _412  and  _414
REMARK  168  A    between atoms: _414  and  _415
REMARK  169  A    between atoms: _414  and  _417
REMARK  170  A    between atoms: _417  and  _418
REMARK  171  A    between atoms: _428  and  _430
REMARK  172  A    between atoms: _430  and  _431
REMARK  173  A    between atoms: _430  and  _433
REMARK  174  A    between atoms: _433  and  _434
REMARK  175  A    between atoms: _437  and  _439
REMARK  176  A    between atoms: _439  and  _440
REMARK  177  A    between atoms: _439  and  _442
REMARK  178  A    between atoms: _442  and  _443
REMARK  179  A    between atoms: _446  and  _448
REMARK  180  A    between atoms: _448  and  _449
REMARK  181  A    between atoms: _448  and  _451
REMARK  182  A    between atoms: _451  and  _452
REMARK  183  A    between atoms: _462  and  _464
REMARK  184  A    between atoms: _464  and  _465
REMARK  185  A    between atoms: _464  and  _467
REMARK  186  A    between atoms: _467  and  _468
REMARK  187  A    between atoms: _468  and  _469
REMARK  188  A    between atoms: _469  and  _470
REMARK  189  A    between atoms: _479  and  _481
REMARK  190  A    between atoms: _481  and  _482
REMARK  191  A    between atoms: _481  and  _484
REMARK  192  A    between atoms: _484  and  _485
REMARK  193  A    between atoms: _488  and  _490
REMARK  194  A    between atoms: _490  and  _491
REMARK  195  A    between atoms: _490  and  _493
REMARK  196  A    between atoms: _493  and  _494
REMARK  197  A    between atoms: _500  and  _502
REMARK  198  A    between atoms: _502  and  _503
REMARK  199  A    between atoms: _505  and  _507
REMARK  200  A    between atoms: _507  and  _508
REMARK  201  A    between atoms: _507  and  _510
REMARK  202  A    between atoms: _510  and  _511
REMARK  203  A    between atoms: _511  and  _512
REMARK  204  A    between atoms: _512  and  _513
REMARK  205  A    between atoms: _522  and  _524
REMARK  206  A    between atoms: _524  and  _525
REMARK  207  A    between atoms: _524  and  _527
REMARK  208  A    between atoms: _527  and  _528
REMARK  209  A    between atoms: _528  and  _529
REMARK  210  A    between atoms: _529  and  _530
REMARK  211  A    between atoms: _530  and  _531
REMARK  212  A    between atoms: _535  and  _537
REMARK  213  A    between atoms: _537  and  _538
REMARK  214  A    between atoms: _540  and  _542
REMARK  215  A    between atoms: _542  and  _543
REMARK  216  A    between atoms: _542  and  _545
REMARK  217  A    between atoms: _548  and  _550
REMARK  218  A    between atoms: _550  and  _551
REMARK  219  A    between atoms: _550  and  _553
REMARK  220  A    between atoms: _553  and  _554
REMARK  221  A    between atoms: _556  and  _558
REMARK  222  A    between atoms: _558  and  _559
REMARK  223  A    between atoms: _558  and  _561
REMARK  224  A    between atoms: _561  and  _562
REMARK  225  A    between atoms: _567  and  _569
REMARK  226  A    between atoms: _569  and  _570
REMARK  227  A    between atoms: _572  and  _574
REMARK  228  A    between atoms: _574  and  _575
REMARK  229  A    between atoms: _574  and  _577
REMARK  230  A    between atoms: _577  and  _578
REMARK  231  A    between atoms: _584  and  _586
REMARK  232  A    between atoms: _586  and  _587
REMARK  233  A    between atoms: _586  and  _589
REMARK  234  A    between atoms: _589  and  _590
REMARK  235  A    between atoms: _596  and  _598
REMARK  236  A    between atoms: _598  and  _599
REMARK  237  A    between atoms: _598  and  _601
REMARK  238  A    between atoms: _601  and  _602
REMARK  239  A    between atoms: _605  and  _607
REMARK  240  A    between atoms: _607  and  _608
REMARK  241  A    between atoms: _607  and  _610
REMARK  242  A    between atoms: _610  and  _611
REMARK  243  A    between atoms: _611  and  _612
REMARK  244  A    between atoms: _612  and  _613
REMARK  245  A    between atoms: _613  and  _614
REMARK  246  A    between atoms: _618  and  _620
REMARK  247  A    between atoms: _620  and  _621
REMARK  248  A    between atoms: _620  and  _623
REMARK  249  A    between atoms: _623  and  _624
REMARK  250  A    between atoms: _624  and  _625
REMARK  251  A    between atoms: _625  and  _626
REMARK                            x       y       z     vdW  Elec       q    Type
REMARK                         _______ _______ _______ _____ _____    ______ ____
ROOT
ATOM      1  O   HOH     1       8.606  17.291  13.745  0.00  0.00    +0.000 OA
ENDROOT
TORSDOF 0
REMARK  Name = ../refined-set-2016/2am4/2am4_pocket.pdb
REMARK  251 active torsions:
REMARK  status: ('A' for Active; 'I' for Inactive)
REMARK    1  A    between atoms: _1  and  _3
REMARK    2  A    between atoms: _3  and  _4
REMARK    3  A    between atoms: _3  and  _6
REMARK    4  A    between atoms: _6  and  _7
REMARK    5  A    between atoms: _10  and  _12
REMARK    6  A    between atoms: _12  and  _13
REMARK    7  A    between atoms: _12  and  _15
REMARK    8  A    between atoms: _18  and  _20
REMARK    9  A    between atoms: _20  and  _21
REMARK   10  A    between atoms: _20  and  _23
REMARK   11  A    between atoms: _23  and  _24
REMARK   12  A    between atoms: _27  and  _29
REMARK   13  A    between atoms: _29  and  _30
REMARK   14  A    between atoms: _33  and  _35
REMARK   15  A    between atoms: _35  and  _36
REMARK   16  A    between atoms: _35  and  _38
REMARK   17  A    between atoms: _38  and  _39
REMARK   18  A    between atoms: _39  and  _109
REMARK   19  A    between atoms: _40  and  _42
REMARK   20  A    between atoms: _42  and  _43
REMARK   21  A    between atoms: _42  and  _45
REMARK   22  A    between atoms: _45  and  _46
REMARK   23  A    between atoms: _49  and  _51
REMARK   24  A    between atoms: _51  and  _52
REMARK   25  A    between atoms: _51  and  _54
REMARK   26  A    between atoms: _54  and  _55
REMARK   27  A    between atoms: _55  and  _56
REMARK   28  A    between atoms: _56  and  _57
REMARK   29  A    between atoms: _66  and  _68
REMARK   30  A    between atoms: _68  and  _69
REMARK   31  A    between atoms: _68  and  _71
REMARK   32  A    between atoms: _74  and  _76
REMARK   33  A    between atoms: _76  and  _77
REMARK   34  A    between atoms: _76  and  _79
REMARK   35  A    between atoms: _79  and  _80
REMARK   36  A    between atoms: _82  and  _84
REMARK   37  A    between atoms: _84  and  _85
REMARK   38  A    between atoms: _84  and  _87
REMARK   39  A    between atoms: _87  and  _88
REMARK   40  A    between atoms: _88  and  _89
REMARK   41  A    between atoms: _94  and  _96
REMARK   42  A    between atoms: _96  and  _97
REMARK   43  A    between atoms: _96  and  _99
REMARK   44  A    between atoms: _99  and  _100
REMARK   45  A    between atoms: _103  and  _105
REMARK   46  A    between atoms: _105  and  _106
REMARK   47  A    between atoms: _105  and  _108
REMARK   48  A    between atoms: _108  and  _109
REMARK   49  A    between atoms: _110  and  _112
REMARK   50  A    between atoms: _112  and  _113
REMARK   51  A    between atoms: _115  and  _117
REMARK   52  A    between atoms: _117  and  _118
REMARK   53  A    between atoms: _117  and  _120
REMARK   54  A    between atoms: _120  and  _121
REMARK   55  A    between atoms: _124  and  _126
REMARK   56  A    between atoms: _126  and  _127
REMARK   57  A    between atoms: _126  and  _129
REMARK   58  A    between atoms: _129  and  _130
REMARK   59  A    between atoms: _130  and  _131
REMARK   60  A    between atoms: _136  and  _138
REMARK   61  A    between atoms: _138  and  _139
REMARK   62  A    between atoms: _138  and  _141
REMARK   63  A    between atoms: _141  and  _142
REMARK   64  A    between atoms: _145  and  _147
REMARK   65  A    between atoms: _147  and  _148
REMARK   66  A    between atoms: _147  and  _150
REMARK   67  A    between atoms: _150  and  _151
REMARK   68  A    between atoms: _154  and  _156
REMARK   69  A    between atoms: _156  and  _157
REMARK   70  A    between atoms: _156  and  _159
REMARK   71  A    between atoms: _159  and  _160
REMARK   72  A    between atoms: _166  and  _168
REMARK   73  A    between atoms: _168  and  _169
REMARK   74  A    between atoms: _168  and  _171
REMARK   75  A    between atoms: _171  and  _172
REMARK   76  A    between atoms: _172  and  _173
REMARK   77  A    between atoms: _178  and  _180
REMARK   78  A    between atoms: _180  and  _181
REMARK   79  A    between atoms: _183  and  _185
REMARK   80  A    between atoms: _185  and  _186
REMARK   81  A    between atoms: _185  and  _188
REMARK   82  A    between atoms: _188  and  _189
REMARK   83  A    between atoms: _194  and  _195
REMARK   84  A    between atoms: _197  and  _199
REMARK   85  A    between atoms: _199  and  _200
REMARK   86  A    between atoms: _199  and  _202
REMARK   87  A    between atoms: _202  and  _203
REMARK   88  A    between atoms: _208  and  _209
REMARK   89  A    between atoms: _211  and  _213
REMARK   90  A    between atoms: _213  and  _214
REMARK   91  A    between atoms: _213  and  _216
REMARK   92  A    between atoms: _216  and  _217
REMARK   93  A    between atoms: _217  and  _218
REMARK   94  A    between atoms: _218  and  _219
REMARK   95  A    between atoms: _219  and  _220
REMARK   96  A    between atoms: _224  and  _226
REMARK   97  A    between atoms: _226  and  _227
REMARK   98  A    between atoms: _226  and  _229
REMARK   99  A    between atoms: _229  and  _230
REMARK  100  A    between atoms: _233  and  _235
REMARK  101  A    between atoms: _235  and  _236
REMARK  102  A    between atoms: _239  and  _241
REMARK  103  A    between atoms: _241  and  _242
REMARK  104  A    between atoms: _241  and  _244
REMARK  105  A    between atoms: _244  and  _245
REMARK  106  A    between atoms: _245  and  _246
REMARK  107  A    between atoms: _246  and  _247
REMARK  108  A    between atoms: _256  and  _258
REMARK  109  A    between atoms: _258  and  _259
REMARK  110  A    between atoms: _258  and  _261
REMARK  111  A    between atoms: _261  and  _262
REMARK  112  A    between atoms: _267  and  _269
REMARK  113  A    between atoms: _269  and  _270
REMARK  114  A    between atoms: _269  and  _272
REMARK  115  A    between atoms: _272  and  _273
REMARK  116  A    between atoms: _278  and  _279
REMARK  117  A    between atoms: _281  and  _283
REMARK  118  A    between atoms: _283  and  _284
REMARK  119  A    between atoms: _287  and  _289
REMARK  120  A    between atoms: _289  and  _290
REMARK  121  A    between atoms: _289  and  _292
REMARK  122  A    between atoms: _295  and  _297
REMARK  123  A    between atoms: _297  and  _298
REMARK  124  A    between atoms: _297  and  _300
REMARK  125  A    between atoms: _303  and  _305
REMARK  126  A    between atoms: _305  and  _306
REMARK  127  A    between atoms: _305  and  _308
REMARK  128  A    between atoms: _308  and  _309
REMARK  129  A    between atoms: _309  and  _310
REMARK  130  A    between atoms: _313  and  _315
REMARK  131  A    between atoms: _315  and  _316
REMARK  132  A    between atoms: _315  and  _318
REMARK  133  A    between atoms: _318  and  _319
REMARK  134  A    between atoms: _322  and  _324
REMARK  135  A    between atoms: _324  and  _325
REMARK  136  A    between atoms: _324  and  _327
REMARK  137  A    between atoms: _327  and  _328
REMARK  138  A    between atoms: _328  and  _330
REMARK  139  A    between atoms: _330  and  MN_635
REMARK  140  A    between atoms: _331  and  _333
REMARK  141  A    between atoms: _333  and  _334
REMARK  142  A    between atoms: _333  and  _336
REMARK  143  A    between atoms: _336  and  _337
REMARK  144  A    between atoms: _340  and  _342
REMARK  145  A    between atoms: _342  and  _343
REMARK  146  A    between atoms: _342  and  _345
REMARK  147  A    between atoms: _345  and  _346
REMARK  148  A    between atoms: _353  and  _354
REMARK  149  A    between atoms: _359  and  _361
REMARK  150  A    between atoms: _361  and  _362
REMARK  151  A    between atoms: _364  and  _366
REMARK  152  A    between atoms: _366  and  _367
REMARK  153  A    between atoms: _366  and  _369
REMARK  154  A    between atoms: _369  and  _370
REMARK  155  A    between atoms: _373  and  _375
REMARK  156  A    between atoms: _375  and  _376
REMARK  157  A    between atoms: _378  and  _380
REMARK  158  A    between atoms: _380  and  _381
REMARK  159  A    between atoms: _380  and  _383
REMARK  160  A    between atoms: _383  and  _384
REMARK  161  A    between atoms: _394  and  _396
REMARK  162  A    between atoms: _396  and  _397
REMARK  163  A    between atoms: _400  and  _402
REMARK  164  A    between atoms: _402  and  _403
REMARK  165  A    between atoms: _402  and  _405
REMARK  166  A    between atoms: _405  and  _406
REMARK  167  A    between atoms: _412  and  _414
REMARK  168  A    between atoms: _414  and  _415
REMARK  169  A    between atoms: _414  and  _417
REMARK  170  A    between atoms: _417  and  _418
REMARK  171  A    between atoms: _428  and  _430
REMARK  172  A    between atoms: _430  and  _431
REMARK  173  A    between atoms: _430  and  _433
REMARK  174  A    between atoms: _433  and  _434
REMARK  175  A    between atoms: _437  and  _439
REMARK  176  A    between atoms: _439  and  _440
REMARK  177  A    between atoms: _439  and  _442
REMARK  178  A    between atoms: _442  and  _443
REMARK  179  A    between atoms: _446  and  _448
REMARK  180  A    between atoms: _448  and  _449
REMARK  181  A    between atoms: _448  and  _451
REMARK  182  A    between atoms: _451  and  _452
REMARK  183  A    between atoms: _462  and  _464
REMARK  184  A    between atoms: _464  and  _465
REMARK  185  A    between atoms: _464  and  _467
REMARK  186  A    between atoms: _467  and  _468
REMARK  187  A    between atoms: _468  and  _469
REMARK  188  A    between atoms: _469  and  _470
REMARK  189  A    between atoms: _479  and  _481
REMARK  190  A    between atoms: _481  and  _482
REMARK  191  A    between atoms: _481  and  _484
REMARK  192  A    between atoms: _484  and  _485
REMARK  193  A    between atoms: _488  and  _490
REMARK  194  A    between atoms: _490  and  _491
REMARK  195  A    between atoms: _490  and  _493
REMARK  196  A    between atoms: _493  and  _494
REMARK  197  A    between atoms: _500  and  _502
REMARK  198  A    between atoms: _502  and  _503
REMARK  199  A    between atoms: _505  and  _507
REMARK  200  A    between atoms: _507  and  _508
REMARK  201  A    between atoms: _507  and  _510
REMARK  202  A    between atoms: _510  and  _511
REMARK  203  A    between atoms: _511  and  _512
REMARK  204  A    between atoms: _512  and  _513
REMARK  205  A    between atoms: _522  and  _524
REMARK  206  A    between atoms: _524  and  _525
REMARK  207  A    between atoms: _524  and  _527
REMARK  208  A    between atoms: _527  and  _528
REMARK  209  A    between atoms: _528  and  _529
REMARK  210  A    between atoms: _529  and  _530
REMARK  211  A    between atoms: _530  and  _531
REMARK  212  A    between atoms: _535  and  _537
REMARK  213  A    between atoms: _537  and  _538
REMARK  214  A    between atoms: _540  and  _542
REMARK  215  A    between atoms: _542  and  _543
REMARK  216  A    between atoms: _542  and  _545
REMARK  217  A    between atoms: _548  and  _550
REMARK  218  A    between atoms: _550  and  _551
REMARK  219  A    between atoms: _550  and  _553
REMARK  220  A    between atoms: _553  and  _554
REMARK  221  A    between atoms: _556  and  _558
REMARK  222  A    between atoms: _558  and  _559
REMARK  223  A    between atoms: _558  and  _561
REMARK  224  A    between atoms: _561  and  _562
REMARK  225  A    between atoms: _567  and  _569
REMARK  226  A    between atoms: _569  and  _570
REMARK  227  A    between atoms: _572  and  _574
REMARK  228  A    between atoms: _574  and  _575
REMARK  229  A    between atoms: _574  and  _577
REMARK  230  A    between atoms: _577  and  _578
REMARK  231  A    between atoms: _584  and  _586
REMARK  232  A    between atoms: _586  and  _587
REMARK  233  A    between atoms: _586  and  _589
REMARK  234  A    between atoms: _589  and  _590
REMARK  235  A    between atoms: _596  and  _598
REMARK  236  A    between atoms: _598  and  _599
REMARK  237  A    between atoms: _598  and  _601
REMARK  238  A    between atoms: _601  and  _602
REMARK  239  A    between atoms: _605  and  _607
REMARK  240  A    between atoms: _607  and  _608
REMARK  241  A    between atoms: _607  and  _610
REMARK  242  A    between atoms: _610  and  _611
REMARK  243  A    between atoms: _611  and  _612
REMARK  244  A    between atoms: _612  and  _613
REMARK  245  A    between atoms: _613  and  _614
REMARK  246  A    between atoms: _618  and  _620
REMARK  247  A    between atoms: _620  and  _621
REMARK  248  A    between atoms: _620  and  _623
REMARK  249  A    between atoms: _623  and  _624
REMARK  250  A    between atoms: _624  and  _625
REMARK  251  A    between atoms: _625  and  _626
REMARK                            x       y       z     vdW  Elec       q    Type
REMARK                         _______ _______ _______ _____ _____    ______ ____
ROOT
ATOM      1  O   HOH     1       7.739  23.436   2.771  0.00  0.00    +0.000 OA
ENDROOT
TORSDOF 0
REMARK  Name = ../refined-set-2016/2am4/2am4_pocket.pdb
REMARK  251 active torsions:
REMARK  status: ('A' for Active; 'I' for Inactive)
REMARK    1  A    between atoms: _1  and  _3
REMARK    2  A    between atoms: _3  and  _4
REMARK    3  A    between atoms: _3  and  _6
REMARK    4  A    between atoms: _6  and  _7
REMARK    5  A    between atoms: _10  and  _12
REMARK    6  A    between atoms: _12  and  _13
REMARK    7  A    between atoms: _12  and  _15
REMARK    8  A    between atoms: _18  and  _20
REMARK    9  A    between atoms: _20  and  _21
REMARK   10  A    between atoms: _20  and  _23
REMARK   11  A    between atoms: _23  and  _24
REMARK   12  A    between atoms: _27  and  _29
REMARK   13  A    between atoms: _29  and  _30
REMARK   14  A    between atoms: _33  and  _35
REMARK   15  A    between atoms: _35  and  _36
REMARK   16  A    between atoms: _35  and  _38
REMARK   17  A    between atoms: _38  and  _39
REMARK   18  A    between atoms: _39  and  _109
REMARK   19  A    between atoms: _40  and  _42
REMARK   20  A    between atoms: _42  and  _43
REMARK   21  A    between atoms: _42  and  _45
REMARK   22  A    between atoms: _45  and  _46
REMARK   23  A    between atoms: _49  and  _51
REMARK   24  A    between atoms: _51  and  _52
REMARK   25  A    between atoms: _51  and  _54
REMARK   26  A    between atoms: _54  and  _55
REMARK   27  A    between atoms: _55  and  _56
REMARK   28  A    between atoms: _56  and  _57
REMARK   29  A    between atoms: _66  and  _68
REMARK   30  A    between atoms: _68  and  _69
REMARK   31  A    between atoms: _68  and  _71
REMARK   32  A    between atoms: _74  and  _76
REMARK   33  A    between atoms: _76  and  _77
REMARK   34  A    between atoms: _76  and  _79
REMARK   35  A    between atoms: _79  and  _80
REMARK   36  A    between atoms: _82  and  _84
REMARK   37  A    between atoms: _84  and  _85
REMARK   38  A    between atoms: _84  and  _87
REMARK   39  A    between atoms: _87  and  _88
REMARK   40  A    between atoms: _88  and  _89
REMARK   41  A    between atoms: _94  and  _96
REMARK   42  A    between atoms: _96  and  _97
REMARK   43  A    between atoms: _96  and  _99
REMARK   44  A    between atoms: _99  and  _100
REMARK   45  A    between atoms: _103  and  _105
REMARK   46  A    between atoms: _105  and  _106
REMARK   47  A    between atoms: _105  and  _108
REMARK   48  A    between atoms: _108  and  _109
REMARK   49  A    between atoms: _110  and  _112
REMARK   50  A    between atoms: _112  and  _113
REMARK   51  A    between atoms: _115  and  _117
REMARK   52  A    between atoms: _117  and  _118
REMARK   53  A    between atoms: _117  and  _120
REMARK   54  A    between atoms: _120  and  _121
REMARK   55  A    between atoms: _124  and  _126
REMARK   56  A    between atoms: _126  and  _127
REMARK   57  A    between atoms: _126  and  _129
REMARK   58  A    between atoms: _129  and  _130
REMARK   59  A    between atoms: _130  and  _131
REMARK   60  A    between atoms: _136  and  _138
REMARK   61  A    between atoms: _138  and  _139
REMARK   62  A    between atoms: _138  and  _141
REMARK   63  A    between atoms: _141  and  _142
REMARK   64  A    between atoms: _145  and  _147
REMARK   65  A    between atoms: _147  and  _148
REMARK   66  A    between atoms: _147  and  _150
REMARK   67  A    between atoms: _150  and  _151
REMARK   68  A    between atoms: _154  and  _156
REMARK   69  A    between atoms: _156  and  _157
REMARK   70  A    between atoms: _156  and  _159
REMARK   71  A    between atoms: _159  and  _160
REMARK   72  A    between atoms: _166  and  _168
REMARK   73  A    between atoms: _168  and  _169
REMARK   74  A    between atoms: _168  and  _171
REMARK   75  A    between atoms: _171  and  _172
REMARK   76  A    between atoms: _172  and  _173
REMARK   77  A    between atoms: _178  and  _180
REMARK   78  A    between atoms: _180  and  _181
REMARK   79  A    between atoms: _183  and  _185
REMARK   80  A    between atoms: _185  and  _186
REMARK   81  A    between atoms: _185  and  _188
REMARK   82  A    between atoms: _188  and  _189
REMARK   83  A    between atoms: _194  and  _195
REMARK   84  A    between atoms: _197  and  _199
REMARK   85  A    between atoms: _199  and  _200
REMARK   86  A    between atoms: _199  and  _202
REMARK   87  A    between atoms: _202  and  _203
REMARK   88  A    between atoms: _208  and  _209
REMARK   89  A    between atoms: _211  and  _213
REMARK   90  A    between atoms: _213  and  _214
REMARK   91  A    between atoms: _213  and  _216
REMARK   92  A    between atoms: _216  and  _217
REMARK   93  A    between atoms: _217  and  _218
REMARK   94  A    between atoms: _218  and  _219
REMARK   95  A    between atoms: _219  and  _220
REMARK   96  A    between atoms: _224  and  _226
REMARK   97  A    between atoms: _226  and  _227
REMARK   98  A    between atoms: _226  and  _229
REMARK   99  A    between atoms: _229  and  _230
REMARK  100  A    between atoms: _233  and  _235
REMARK  101  A    between atoms: _235  and  _236
REMARK  102  A    between atoms: _239  and  _241
REMARK  103  A    between atoms: _241  and  _242
REMARK  104  A    between atoms: _241  and  _244
REMARK  105  A    between atoms: _244  and  _245
REMARK  106  A    between atoms: _245  and  _246
REMARK  107  A    between atoms: _246  and  _247
REMARK  108  A    between atoms: _256  and  _258
REMARK  109  A    between atoms: _258  and  _259
REMARK  110  A    between atoms: _258  and  _261
REMARK  111  A    between atoms: _261  and  _262
REMARK  112  A    between atoms: _267  and  _269
REMARK  113  A    between atoms: _269  and  _270
REMARK  114  A    between atoms: _269  and  _272
REMARK  115  A    between atoms: _272  and  _273
REMARK  116  A    between atoms: _278  and  _279
REMARK  117  A    between atoms: _281  and  _283
REMARK  118  A    between atoms: _283  and  _284
REMARK  119  A    between atoms: _287  and  _289
REMARK  120  A    between atoms: _289  and  _290
REMARK  121  A    between atoms: _289  and  _292
REMARK  122  A    between atoms: _295  and  _297
REMARK  123  A    between atoms: _297  and  _298
REMARK  124  A    between atoms: _297  and  _300
REMARK  125  A    between atoms: _303  and  _305
REMARK  126  A    between atoms: _305  and  _306
REMARK  127  A    between atoms: _305  and  _308
REMARK  128  A    between atoms: _308  and  _309
REMARK  129  A    between atoms: _309  and  _310
REMARK  130  A    between atoms: _313  and  _315
REMARK  131  A    between atoms: _315  and  _316
REMARK  132  A    between atoms: _315  and  _318
REMARK  133  A    between atoms: _318  and  _319
REMARK  134  A    between atoms: _322  and  _324
REMARK  135  A    between atoms: _324  and  _325
REMARK  136  A    between atoms: _324  and  _327
REMARK  137  A    between atoms: _327  and  _328
REMARK  138  A    between atoms: _328  and  _330
REMARK  139  A    between atoms: _330  and  MN_635
REMARK  140  A    between atoms: _331  and  _333
REMARK  141  A    between atoms: _333  and  _334
REMARK  142  A    between atoms: _333  and  _336
REMARK  143  A    between atoms: _336  and  _337
REMARK  144  A    between atoms: _340  and  _342
REMARK  145  A    between atoms: _342  and  _343
REMARK  146  A    between atoms: _342  and  _345
REMARK  147  A    between atoms: _345  and  _346
REMARK  148  A    between atoms: _353  and  _354
REMARK  149  A    between atoms: _359  and  _361
REMARK  150  A    between atoms: _361  and  _362
REMARK  151  A    between atoms: _364  and  _366
REMARK  152  A    between atoms: _366  and  _367
REMARK  153  A    between atoms: _366  and  _369
REMARK  154  A    between atoms: _369  and  _370
REMARK  155  A    between atoms: _373  and  _375
REMARK  156  A    between atoms: _375  and  _376
REMARK  157  A    between atoms: _378  and  _380
REMARK  158  A    between atoms: _380  and  _381
REMARK  159  A    between atoms: _380  and  _383
REMARK  160  A    between atoms: _383  and  _384
REMARK  161  A    between atoms: _394  and  _396
REMARK  162  A    between atoms: _396  and  _397
REMARK  163  A    between atoms: _400  and  _402
REMARK  164  A    between atoms: _402  and  _403
REMARK  165  A    between atoms: _402  and  _405
REMARK  166  A    between atoms: _405  and  _406
REMARK  167  A    between atoms: _412  and  _414
REMARK  168  A    between atoms: _414  and  _415
REMARK  169  A    between atoms: _414  and  _417
REMARK  170  A    between atoms: _417  and  _418
REMARK  171  A    between atoms: _428  and  _430
REMARK  172  A    between atoms: _430  and  _431
REMARK  173  A    between atoms: _430  and  _433
REMARK  174  A    between atoms: _433  and  _434
REMARK  175  A    between atoms: _437  and  _439
REMARK  176  A    between atoms: _439  and  _440
REMARK  177  A    between atoms: _439  and  _442
REMARK  178  A    between atoms: _442  and  _443
REMARK  179  A    between atoms: _446  and  _448
REMARK  180  A    between atoms: _448  and  _449
REMARK  181  A    between atoms: _448  and  _451
REMARK  182  A    between atoms: _451  and  _452
REMARK  183  A    between atoms: _462  and  _464
REMARK  184  A    between atoms: _464  and  _465
REMARK  185  A    between atoms: _464  and  _467
REMARK  186  A    between atoms: _467  and  _468
REMARK  187  A    between atoms: _468  and  _469
REMARK  188  A    between atoms: _469  and  _470
REMARK  189  A    between atoms: _479  and  _481
REMARK  190  A    between atoms: _481  and  _482
REMARK  191  A    between atoms: _481  and  _484
REMARK  192  A    between atoms: _484  and  _485
REMARK  193  A    between atoms: _488  and  _490
REMARK  194  A    between atoms: _490  and  _491
REMARK  195  A    between atoms: _490  and  _493
REMARK  196  A    between atoms: _493  and  _494
REMARK  197  A    between atoms: _500  and  _502
REMARK  198  A    between atoms: _502  and  _503
REMARK  199  A    between atoms: _505  and  _507
REMARK  200  A    between atoms: _507  and  _508
REMARK  201  A    between atoms: _507  and  _510
REMARK  202  A    between atoms: _510  and  _511
REMARK  203  A    between atoms: _511  and  _512
REMARK  204  A    between atoms: _512  and  _513
REMARK  205  A    between atoms: _522  and  _524
REMARK  206  A    between atoms: _524  and  _525
REMARK  207  A    between atoms: _524  and  _527
REMARK  208  A    between atoms: _527  and  _528
REMARK  209  A    between atoms: _528  and  _529
REMARK  210  A    between atoms: _529  and  _530
REMARK  211  A    between atoms: _530  and  _531
REMARK  212  A    between atoms: _535  and  _537
REMARK  213  A    between atoms: _537  and  _538
REMARK  214  A    between atoms: _540  and  _542
REMARK  215  A    between atoms: _542  and  _543
REMARK  216  A    between atoms: _542  and  _545
REMARK  217  A    between atoms: _548  and  _550
REMARK  218  A    between atoms: _550  and  _551
REMARK  219  A    between atoms: _550  and  _553
REMARK  220  A    between atoms: _553  and  _554
REMARK  221  A    between atoms: _556  and  _558
REMARK  222  A    between atoms: _558  and  _559
REMARK  223  A    between atoms: _558  and  _561
REMARK  224  A    between atoms: _561  and  _562
REMARK  225  A    between atoms: _567  and  _569
REMARK  226  A    between atoms: _569  and  _570
REMARK  227  A    between atoms: _572  and  _574
REMARK  228  A    between atoms: _574  and  _575
REMARK  229  A    between atoms: _574  and  _577
REMARK  230  A    between atoms: _577  and  _578
REMARK  231  A    between atoms: _584  and  _586
REMARK  232  A    between atoms: _586  and  _587
REMARK  233  A    between atoms: _586  and  _589
REMARK  234  A    between atoms: _589  and  _590
REMARK  235  A    between atoms: _596  and  _598
REMARK  236  A    between atoms: _598  and  _599
REMARK  237  A    between atoms: _598  and  _601
REMARK  238  A    between atoms: _601  and  _602
REMARK  239  A    between atoms: _605  and  _607
REMARK  240  A    between atoms: _607  and  _608
REMARK  241  A    between atoms: _607  and  _610
REMARK  242  A    between atoms: _610  and  _611
REMARK  243  A    between atoms: _611  and  _612
REMARK  244  A    between atoms: _612  and  _613
REMARK  245  A    between atoms: _613  and  _614
REMARK  246  A    between atoms: _618  and  _620
REMARK  247  A    between atoms: _620  and  _621
REMARK  248  A    between atoms: _620  and  _623
REMARK  249  A    between atoms: _623  and  _624
REMARK  250  A    between atoms: _624  and  _625
REMARK  251  A    between atoms: _625  and  _626
REMARK                            x       y       z     vdW  Elec       q    Type
REMARK                         _______ _______ _______ _____ _____    ______ ____
ROOT
ATOM      1  O   HOH     1       2.805  17.163  20.064  0.00  0.00    +0.000 OA
ENDROOT
TORSDOF 0
REMARK  Name = ../refined-set-2016/2am4/2am4_pocket.pdb
REMARK  251 active torsions:
REMARK  status: ('A' for Active; 'I' for Inactive)
REMARK    1  A    between atoms: _1  and  _3
REMARK    2  A    between atoms: _3  and  _4
REMARK    3  A    between atoms: _3  and  _6
REMARK    4  A    between atoms: _6  and  _7
REMARK    5  A    between atoms: _10  and  _12
REMARK    6  A    between atoms: _12  and  _13
REMARK    7  A    between atoms: _12  and  _15
REMARK    8  A    between atoms: _18  and  _20
REMARK    9  A    between atoms: _20  and  _21
REMARK   10  A    between atoms: _20  and  _23
REMARK   11  A    between atoms: _23  and  _24
REMARK   12  A    between atoms: _27  and  _29
REMARK   13  A    between atoms: _29  and  _30
REMARK   14  A    between atoms: _33  and  _35
REMARK   15  A    between atoms: _35  and  _36
REMARK   16  A    between atoms: _35  and  _38
REMARK   17  A    between atoms: _38  and  _39
REMARK   18  A    between atoms: _39  and  _109
REMARK   19  A    between atoms: _40  and  _42
REMARK   20  A    between atoms: _42  and  _43
REMARK   21  A    between atoms: _42  and  _45
REMARK   22  A    between atoms: _45  and  _46
REMARK   23  A    between atoms: _49  and  _51
REMARK   24  A    between atoms: _51  and  _52
REMARK   25  A    between atoms: _51  and  _54
REMARK   26  A    between atoms: _54  and  _55
REMARK   27  A    between atoms: _55  and  _56
REMARK   28  A    between atoms: _56  and  _57
REMARK   29  A    between atoms: _66  and  _68
REMARK   30  A    between atoms: _68  and  _69
REMARK   31  A    between atoms: _68  and  _71
REMARK   32  A    between atoms: _74  and  _76
REMARK   33  A    between atoms: _76  and  _77
REMARK   34  A    between atoms: _76  and  _79
REMARK   35  A    between atoms: _79  and  _80
REMARK   36  A    between atoms: _82  and  _84
REMARK   37  A    between atoms: _84  and  _85
REMARK   38  A    between atoms: _84  and  _87
REMARK   39  A    between atoms: _87  and  _88
REMARK   40  A    between atoms: _88  and  _89
REMARK   41  A    between atoms: _94  and  _96
REMARK   42  A    between atoms: _96  and  _97
REMARK   43  A    between atoms: _96  and  _99
REMARK   44  A    between atoms: _99  and  _100
REMARK   45  A    between atoms: _103  and  _105
REMARK   46  A    between atoms: _105  and  _106
REMARK   47  A    between atoms: _105  and  _108
REMARK   48  A    between atoms: _108  and  _109
REMARK   49  A    between atoms: _110  and  _112
REMARK   50  A    between atoms: _112  and  _113
REMARK   51  A    between atoms: _115  and  _117
REMARK   52  A    between atoms: _117  and  _118
REMARK   53  A    between atoms: _117  and  _120
REMARK   54  A    between atoms: _120  and  _121
REMARK   55  A    between atoms: _124  and  _126
REMARK   56  A    between atoms: _126  and  _127
REMARK   57  A    between atoms: _126  and  _129
REMARK   58  A    between atoms: _129  and  _130
REMARK   59  A    between atoms: _130  and  _131
REMARK   60  A    between atoms: _136  and  _138
REMARK   61  A    between atoms: _138  and  _139
REMARK   62  A    between atoms: _138  and  _141
REMARK   63  A    between atoms: _141  and  _142
REMARK   64  A    between atoms: _145  and  _147
REMARK   65  A    between atoms: _147  and  _148
REMARK   66  A    between atoms: _147  and  _150
REMARK   67  A    between atoms: _150  and  _151
REMARK   68  A    between atoms: _154  and  _156
REMARK   69  A    between atoms: _156  and  _157
REMARK   70  A    between atoms: _156  and  _159
REMARK   71  A    between atoms: _159  and  _160
REMARK   72  A    between atoms: _166  and  _168
REMARK   73  A    between atoms: _168  and  _169
REMARK   74  A    between atoms: _168  and  _171
REMARK   75  A    between atoms: _171  and  _172
REMARK   76  A    between atoms: _172  and  _173
REMARK   77  A    between atoms: _178  and  _180
REMARK   78  A    between atoms: _180  and  _181
REMARK   79  A    between atoms: _183  and  _185
REMARK   80  A    between atoms: _185  and  _186
REMARK   81  A    between atoms: _185  and  _188
REMARK   82  A    between atoms: _188  and  _189
REMARK   83  A    between atoms: _194  and  _195
REMARK   84  A    between atoms: _197  and  _199
REMARK   85  A    between atoms: _199  and  _200
REMARK   86  A    between atoms: _199  and  _202
REMARK   87  A    between atoms: _202  and  _203
REMARK   88  A    between atoms: _208  and  _209
REMARK   89  A    between atoms: _211  and  _213
REMARK   90  A    between atoms: _213  and  _214
REMARK   91  A    between atoms: _213  and  _216
REMARK   92  A    between atoms: _216  and  _217
REMARK   93  A    between atoms: _217  and  _218
REMARK   94  A    between atoms: _218  and  _219
REMARK   95  A    between atoms: _219  and  _220
REMARK   96  A    between atoms: _224  and  _226
REMARK   97  A    between atoms: _226  and  _227
REMARK   98  A    between atoms: _226  and  _229
REMARK   99  A    between atoms: _229  and  _230
REMARK  100  A    between atoms: _233  and  _235
REMARK  101  A    between atoms: _235  and  _236
REMARK  102  A    between atoms: _239  and  _241
REMARK  103  A    between atoms: _241  and  _242
REMARK  104  A    between atoms: _241  and  _244
REMARK  105  A    between atoms: _244  and  _245
REMARK  106  A    between atoms: _245  and  _246
REMARK  107  A    between atoms: _246  and  _247
REMARK  108  A    between atoms: _256  and  _258
REMARK  109  A    between atoms: _258  and  _259
REMARK  110  A    between atoms: _258  and  _261
REMARK  111  A    between atoms: _261  and  _262
REMARK  112  A    between atoms: _267  and  _269
REMARK  113  A    between atoms: _269  and  _270
REMARK  114  A    between atoms: _269  and  _272
REMARK  115  A    between atoms: _272  and  _273
REMARK  116  A    between atoms: _278  and  _279
REMARK  117  A    between atoms: _281  and  _283
REMARK  118  A    between atoms: _283  and  _284
REMARK  119  A    between atoms: _287  and  _289
REMARK  120  A    between atoms: _289  and  _290
REMARK  121  A    between atoms: _289  and  _292
REMARK  122  A    between atoms: _295  and  _297
REMARK  123  A    between atoms: _297  and  _298
REMARK  124  A    between atoms: _297  and  _300
REMARK  125  A    between atoms: _303  and  _305
REMARK  126  A    between atoms: _305  and  _306
REMARK  127  A    between atoms: _305  and  _308
REMARK  128  A    between atoms: _308  and  _309
REMARK  129  A    between atoms: _309  and  _310
REMARK  130  A    between atoms: _313  and  _315
REMARK  131  A    between atoms: _315  and  _316
REMARK  132  A    between atoms: _315  and  _318
REMARK  133  A    between atoms: _318  and  _319
REMARK  134  A    between atoms: _322  and  _324
REMARK  135  A    between atoms: _324  and  _325
REMARK  136  A    between atoms: _324  and  _327
REMARK  137  A    between atoms: _327  and  _328
REMARK  138  A    between atoms: _328  and  _330
REMARK  139  A    between atoms: _330  and  MN_635
REMARK  140  A    between atoms: _331  and  _333
REMARK  141  A    between atoms: _333  and  _334
REMARK  142  A    between atoms: _333  and  _336
REMARK  143  A    between atoms: _336  and  _337
REMARK  144  A    between atoms: _340  and  _342
REMARK  145  A    between atoms: _342  and  _343
REMARK  146  A    between atoms: _342  and  _345
REMARK  147  A    between atoms: _345  and  _346
REMARK  148  A    between atoms: _353  and  _354
REMARK  149  A    between atoms: _359  and  _361
REMARK  150  A    between atoms: _361  and  _362
REMARK  151  A    between atoms: _364  and  _366
REMARK  152  A    between atoms: _366  and  _367
REMARK  153  A    between atoms: _366  and  _369
REMARK  154  A    between atoms: _369  and  _370
REMARK  155  A    between atoms: _373  and  _375
REMARK  156  A    between atoms: _375  and  _376
REMARK  157  A    between atoms: _378  and  _380
REMARK  158  A    between atoms: _380  and  _381
REMARK  159  A    between atoms: _380  and  _383
REMARK  160  A    between atoms: _383  and  _384
REMARK  161  A    between atoms: _394  and  _396
REMARK  162  A    between atoms: _396  and  _397
REMARK  163  A    between atoms: _400  and  _402
REMARK  164  A    between atoms: _402  and  _403
REMARK  165  A    between atoms: _402  and  _405
REMARK  166  A    between atoms: _405  and  _406
REMARK  167  A    between atoms: _412  and  _414
REMARK  168  A    between atoms: _414  and  _415
REMARK  169  A    between atoms: _414  and  _417
REMARK  170  A    between atoms: _417  and  _418
REMARK  171  A    between atoms: _428  and  _430
REMARK  172  A    between atoms: _430  and  _431
REMARK  173  A    between atoms: _430  and  _433
REMARK  174  A    between atoms: _433  and  _434
REMARK  175  A    between atoms: _437  and  _439
REMARK  176  A    between atoms: _439  and  _440
REMARK  177  A    between atoms: _439  and  _442
REMARK  178  A    between atoms: _442  and  _443
REMARK  179  A    between atoms: _446  and  _448
REMARK  180  A    between atoms: _448  and  _449
REMARK  181  A    between atoms: _448  and  _451
REMARK  182  A    between atoms: _451  and  _452
REMARK  183  A    between atoms: _462  and  _464
REMARK  184  A    between atoms: _464  and  _465
REMARK  185  A    between atoms: _464  and  _467
REMARK  186  A    between atoms: _467  and  _468
REMARK  187  A    between atoms: _468  and  _469
REMARK  188  A    between atoms: _469  and  _470
REMARK  189  A    between atoms: _479  and  _481
REMARK  190  A    between atoms: _481  and  _482
REMARK  191  A    between atoms: _481  and  _484
REMARK  192  A    between atoms: _484  and  _485
REMARK  193  A    between atoms: _488  and  _490
REMARK  194  A    between atoms: _490  and  _491
REMARK  195  A    between atoms: _490  and  _493
REMARK  196  A    between atoms: _493  and  _494
REMARK  197  A    between atoms: _500  and  _502
REMARK  198  A    between atoms: _502  and  _503
REMARK  199  A    between atoms: _505  and  _507
REMARK  200  A    between atoms: _507  and  _508
REMARK  201  A    between atoms: _507  and  _510
REMARK  202  A    between atoms: _510  and  _511
REMARK  203  A    between atoms: _511  and  _512
REMARK  204  A    between atoms: _512  and  _513
REMARK  205  A    between atoms: _522  and  _524
REMARK  206  A    between atoms: _524  and  _525
REMARK  207  A    between atoms: _524  and  _527
REMARK  208  A    between atoms: _527  and  _528
REMARK  209  A    between atoms: _528  and  _529
REMARK  210  A    between atoms: _529  and  _530
REMARK  211  A    between atoms: _530  and  _531
REMARK  212  A    between atoms: _535  and  _537
REMARK  213  A    between atoms: _537  and  _538
REMARK  214  A    between atoms: _540  and  _542
REMARK  215  A    between atoms: _542  and  _543
REMARK  216  A    between atoms: _542  and  _545
REMARK  217  A    between atoms: _548  and  _550
REMARK  218  A    between atoms: _550  and  _551
REMARK  219  A    between atoms: _550  and  _553
REMARK  220  A    between atoms: _553  and  _554
REMARK  221  A    between atoms: _556  and  _558
REMARK  222  A    between atoms: _558  and  _559
REMARK  223  A    between atoms: _558  and  _561
REMARK  224  A    between atoms: _561  and  _562
REMARK  225  A    between atoms: _567  and  _569
REMARK  226  A    between atoms: _569  and  _570
REMARK  227  A    between atoms: _572  and  _574
REMARK  228  A    between atoms: _574  and  _575
REMARK  229  A    between atoms: _574  and  _577
REMARK  230  A    between atoms: _577  and  _578
REMARK  231  A    between atoms: _584  and  _586
REMARK  232  A    between atoms: _586  and  _587
REMARK  233  A    between atoms: _586  and  _589
REMARK  234  A    between atoms: _589  and  _590
REMARK  235  A    between atoms: _596  and  _598
REMARK  236  A    between atoms: _598  and  _599
REMARK  237  A    between atoms: _598  and  _601
REMARK  238  A    between atoms: _601  and  _602
REMARK  239  A    between atoms: _605  and  _607
REMARK  240  A    between atoms: _607  and  _608
REMARK  241  A    between atoms: _607  and  _610
REMARK  242  A    between atoms: _610  and  _611
REMARK  243  A    between atoms: _611  and  _612
REMARK  244  A    between atoms: _612  and  _613
REMARK  245  A    between atoms: _613  and  _614
REMARK  246  A    between atoms: _618  and  _620
REMARK  247  A    between atoms: _620  and  _621
REMARK  248  A    between atoms: _620  and  _623
REMARK  249  A    between atoms: _623  and  _624
REMARK  250  A    between atoms: _624  and  _625
REMARK  251  A    between atoms: _625  and  _626
REMARK                            x       y       z     vdW  Elec       q    Type
REMARK                         _______ _______ _______ _____ _____    ______ ____
ROOT
ATOM      1  O   HOH     1       9.091  19.376  11.517  0.00  0.00    +0.000 OA
ENDROOT
TORSDOF 0
REMARK  Name = ../refined-set-2016/2am4/2am4_pocket.pdb
REMARK  251 active torsions:
REMARK  status: ('A' for Active; 'I' for Inactive)
REMARK    1  A    between atoms: _1  and  _3
REMARK    2  A    between atoms: _3  and  _4
REMARK    3  A    between atoms: _3  and  _6
REMARK    4  A    between atoms: _6  and  _7
REMARK    5  A    between atoms: _10  and  _12
REMARK    6  A    between atoms: _12  and  _13
REMARK    7  A    between atoms: _12  and  _15
REMARK    8  A    between atoms: _18  and  _20
REMARK    9  A    between atoms: _20  and  _21
REMARK   10  A    between atoms: _20  and  _23
REMARK   11  A    between atoms: _23  and  _24
REMARK   12  A    between atoms: _27  and  _29
REMARK   13  A    between atoms: _29  and  _30
REMARK   14  A    between atoms: _33  and  _35
REMARK   15  A    between atoms: _35  and  _36
REMARK   16  A    between atoms: _35  and  _38
REMARK   17  A    between atoms: _38  and  _39
REMARK   18  A    between atoms: _39  and  _109
REMARK   19  A    between atoms: _40  and  _42
REMARK   20  A    between atoms: _42  and  _43
REMARK   21  A    between atoms: _42  and  _45
REMARK   22  A    between atoms: _45  and  _46
REMARK   23  A    between atoms: _49  and  _51
REMARK   24  A    between atoms: _51  and  _52
REMARK   25  A    between atoms: _51  and  _54
REMARK   26  A    between atoms: _54  and  _55
REMARK   27  A    between atoms: _55  and  _56
REMARK   28  A    between atoms: _56  and  _57
REMARK   29  A    between atoms: _66  and  _68
REMARK   30  A    between atoms: _68  and  _69
REMARK   31  A    between atoms: _68  and  _71
REMARK   32  A    between atoms: _74  and  _76
REMARK   33  A    between atoms: _76  and  _77
REMARK   34  A    between atoms: _76  and  _79
REMARK   35  A    between atoms: _79  and  _80
REMARK   36  A    between atoms: _82  and  _84
REMARK   37  A    between atoms: _84  and  _85
REMARK   38  A    between atoms: _84  and  _87
REMARK   39  A    between atoms: _87  and  _88
REMARK   40  A    between atoms: _88  and  _89
REMARK   41  A    between atoms: _94  and  _96
REMARK   42  A    between atoms: _96  and  _97
REMARK   43  A    between atoms: _96  and  _99
REMARK   44  A    between atoms: _99  and  _100
REMARK   45  A    between atoms: _103  and  _105
REMARK   46  A    between atoms: _105  and  _106
REMARK   47  A    between atoms: _105  and  _108
REMARK   48  A    between atoms: _108  and  _109
REMARK   49  A    between atoms: _110  and  _112
REMARK   50  A    between atoms: _112  and  _113
REMARK   51  A    between atoms: _115  and  _117
REMARK   52  A    between atoms: _117  and  _118
REMARK   53  A    between atoms: _117  and  _120
REMARK   54  A    between atoms: _120  and  _121
REMARK   55  A    between atoms: _124  and  _126
REMARK   56  A    between atoms: _126  and  _127
REMARK   57  A    between atoms: _126  and  _129
REMARK   58  A    between atoms: _129  and  _130
REMARK   59  A    between atoms: _130  and  _131
REMARK   60  A    between atoms: _136  and  _138
REMARK   61  A    between atoms: _138  and  _139
REMARK   62  A    between atoms: _138  and  _141
REMARK   63  A    between atoms: _141  and  _142
REMARK   64  A    between atoms: _145  and  _147
REMARK   65  A    between atoms: _147  and  _148
REMARK   66  A    between atoms: _147  and  _150
REMARK   67  A    between atoms: _150  and  _151
REMARK   68  A    between atoms: _154  and  _156
REMARK   69  A    between atoms: _156  and  _157
REMARK   70  A    between atoms: _156  and  _159
REMARK   71  A    between atoms: _159  and  _160
REMARK   72  A    between atoms: _166  and  _168
REMARK   73  A    between atoms: _168  and  _169
REMARK   74  A    between atoms: _168  and  _171
REMARK   75  A    between atoms: _171  and  _172
REMARK   76  A    between atoms: _172  and  _173
REMARK   77  A    between atoms: _178  and  _180
REMARK   78  A    between atoms: _180  and  _181
REMARK   79  A    between atoms: _183  and  _185
REMARK   80  A    between atoms: _185  and  _186
REMARK   81  A    between atoms: _185  and  _188
REMARK   82  A    between atoms: _188  and  _189
REMARK   83  A    between atoms: _194  and  _195
REMARK   84  A    between atoms: _197  and  _199
REMARK   85  A    between atoms: _199  and  _200
REMARK   86  A    between atoms: _199  and  _202
REMARK   87  A    between atoms: _202  and  _203
REMARK   88  A    between atoms: _208  and  _209
REMARK   89  A    between atoms: _211  and  _213
REMARK   90  A    between atoms: _213  and  _214
REMARK   91  A    between atoms: _213  and  _216
REMARK   92  A    between atoms: _216  and  _217
REMARK   93  A    between atoms: _217  and  _218
REMARK   94  A    between atoms: _218  and  _219
REMARK   95  A    between atoms: _219  and  _220
REMARK   96  A    between atoms: _224  and  _226
REMARK   97  A    between atoms: _226  and  _227
REMARK   98  A    between atoms: _226  and  _229
REMARK   99  A    between atoms: _229  and  _230
REMARK  100  A    between atoms: _233  and  _235
REMARK  101  A    between atoms: _235  and  _236
REMARK  102  A    between atoms: _239  and  _241
REMARK  103  A    between atoms: _241  and  _242
REMARK  104  A    between atoms: _241  and  _244
REMARK  105  A    between atoms: _244  and  _245
REMARK  106  A    between atoms: _245  and  _246
REMARK  107  A    between atoms: _246  and  _247
REMARK  108  A    between atoms: _256  and  _258
REMARK  109  A    between atoms: _258  and  _259
REMARK  110  A    between atoms: _258  and  _261
REMARK  111  A    between atoms: _261  and  _262
REMARK  112  A    between atoms: _267  and  _269
REMARK  113  A    between atoms: _269  and  _270
REMARK  114  A    between atoms: _269  and  _272
REMARK  115  A    between atoms: _272  and  _273
REMARK  116  A    between atoms: _278  and  _279
REMARK  117  A    between atoms: _281  and  _283
REMARK  118  A    between atoms: _283  and  _284
REMARK  119  A    between atoms: _287  and  _289
REMARK  120  A    between atoms: _289  and  _290
REMARK  121  A    between atoms: _289  and  _292
REMARK  122  A    between atoms: _295  and  _297
REMARK  123  A    between atoms: _297  and  _298
REMARK  124  A    between atoms: _297  and  _300
REMARK  125  A    between atoms: _303  and  _305
REMARK  126  A    between atoms: _305  and  _306
REMARK  127  A    between atoms: _305  and  _308
REMARK  128  A    between atoms: _308  and  _309
REMARK  129  A    between atoms: _309  and  _310
REMARK  130  A    between atoms: _313  and  _315
REMARK  131  A    between atoms: _315  and  _316
REMARK  132  A    between atoms: _315  and  _318
REMARK  133  A    between atoms: _318  and  _319
REMARK  134  A    between atoms: _322  and  _324
REMARK  135  A    between atoms: _324  and  _325
REMARK  136  A    between atoms: _324  and  _327
REMARK  137  A    between atoms: _327  and  _328
REMARK  138  A    between atoms: _328  and  _330
REMARK  139  A    between atoms: _330  and  MN_635
REMARK  140  A    between atoms: _331  and  _333
REMARK  141  A    between atoms: _333  and  _334
REMARK  142  A    between atoms: _333  and  _336
REMARK  143  A    between atoms: _336  and  _337
REMARK  144  A    between atoms: _340  and  _342
REMARK  145  A    between atoms: _342  and  _343
REMARK  146  A    between atoms: _342  and  _345
REMARK  147  A    between atoms: _345  and  _346
REMARK  148  A    between atoms: _353  and  _354
REMARK  149  A    between atoms: _359  and  _361
REMARK  150  A    between atoms: _361  and  _362
REMARK  151  A    between atoms: _364  and  _366
REMARK  152  A    between atoms: _366  and  _367
REMARK  153  A    between atoms: _366  and  _369
REMARK  154  A    between atoms: _369  and  _370
REMARK  155  A    between atoms: _373  and  _375
REMARK  156  A    between atoms: _375  and  _376
REMARK  157  A    between atoms: _378  and  _380
REMARK  158  A    between atoms: _380  and  _381
REMARK  159  A    between atoms: _380  and  _383
REMARK  160  A    between atoms: _383  and  _384
REMARK  161  A    between atoms: _394  and  _396
REMARK  162  A    between atoms: _396  and  _397
REMARK  163  A    between atoms: _400  and  _402
REMARK  164  A    between atoms: _402  and  _403
REMARK  165  A    between atoms: _402  and  _405
REMARK  166  A    between atoms: _405  and  _406
REMARK  167  A    between atoms: _412  and  _414
REMARK  168  A    between atoms: _414  and  _415
REMARK  169  A    between atoms: _414  and  _417
REMARK  170  A    between atoms: _417  and  _418
REMARK  171  A    between atoms: _428  and  _430
REMARK  172  A    between atoms: _430  and  _431
REMARK  173  A    between atoms: _430  and  _433
REMARK  174  A    between atoms: _433  and  _434
REMARK  175  A    between atoms: _437  and  _439
REMARK  176  A    between atoms: _439  and  _440
REMARK  177  A    between atoms: _439  and  _442
REMARK  178  A    between atoms: _442  and  _443
REMARK  179  A    between atoms: _446  and  _448
REMARK  180  A    between atoms: _448  and  _449
REMARK  181  A    between atoms: _448  and  _451
REMARK  182  A    between atoms: _451  and  _452
REMARK  183  A    between atoms: _462  and  _464
REMARK  184  A    between atoms: _464  and  _465
REMARK  185  A    between atoms: _464  and  _467
REMARK  186  A    between atoms: _467  and  _468
REMARK  187  A    between atoms: _468  and  _469
REMARK  188  A    between atoms: _469  and  _470
REMARK  189  A    between atoms: _479  and  _481
REMARK  190  A    between atoms: _481  and  _482
REMARK  191  A    between atoms: _481  and  _484
REMARK  192  A    between atoms: _484  and  _485
REMARK  193  A    between atoms: _488  and  _490
REMARK  194  A    between atoms: _490  and  _491
REMARK  195  A    between atoms: _490  and  _493
REMARK  196  A    between atoms: _493  and  _494
REMARK  197  A    between atoms: _500  and  _502
REMARK  198  A    between atoms: _502  and  _503
REMARK  199  A    between atoms: _505  and  _507
REMARK  200  A    between atoms: _507  and  _508
REMARK  201  A    between atoms: _507  and  _510
REMARK  202  A    between atoms: _510  and  _511
REMARK  203  A    between atoms: _511  and  _512
REMARK  204  A    between atoms: _512  and  _513
REMARK  205  A    between atoms: _522  and  _524
REMARK  206  A    between atoms: _524  and  _525
REMARK  207  A    between atoms: _524  and  _527
REMARK  208  A    between atoms: _527  and  _528
REMARK  209  A    between atoms: _528  and  _529
REMARK  210  A    between atoms: _529  and  _530
REMARK  211  A    between atoms: _530  and  _531
REMARK  212  A    between atoms: _535  and  _537
REMARK  213  A    between atoms: _537  and  _538
REMARK  214  A    between atoms: _540  and  _542
REMARK  215  A    between atoms: _542  and  _543
REMARK  216  A    between atoms: _542  and  _545
REMARK  217  A    between atoms: _548  and  _550
REMARK  218  A    between atoms: _550  and  _551
REMARK  219  A    between atoms: _550  and  _553
REMARK  220  A    between atoms: _553  and  _554
REMARK  221  A    between atoms: _556  and  _558
REMARK  222  A    between atoms: _558  and  _559
REMARK  223  A    between atoms: _558  and  _561
REMARK  224  A    between atoms: _561  and  _562
REMARK  225  A    between atoms: _567  and  _569
REMARK  226  A    between atoms: _569  and  _570
REMARK  227  A    between atoms: _572  and  _574
REMARK  228  A    between atoms: _574  and  _575
REMARK  229  A    between atoms: _574  and  _577
REMARK  230  A    between atoms: _577  and  _578
REMARK  231  A    between atoms: _584  and  _586
REMARK  232  A    between atoms: _586  and  _587
REMARK  233  A    between atoms: _586  and  _589
REMARK  234  A    between atoms: _589  and  _590
REMARK  235  A    between atoms: _596  and  _598
REMARK  236  A    between atoms: _598  and  _599
REMARK  237  A    between atoms: _598  and  _601
REMARK  238  A    between atoms: _601  and  _602
REMARK  239  A    between atoms: _605  and  _607
REMARK  240  A    between atoms: _607  and  _608
REMARK  241  A    between atoms: _607  and  _610
REMARK  242  A    between atoms: _610  and  _611
REMARK  243  A    between atoms: _611  and  _612
REMARK  244  A    between atoms: _612  and  _613
REMARK  245  A    between atoms: _613  and  _614
REMARK  246  A    between atoms: _618  and  _620
REMARK  247  A    between atoms: _620  and  _621
REMARK  248  A    between atoms: _620  and  _623
REMARK  249  A    between atoms: _623  and  _624
REMARK  250  A    between atoms: _624  and  _625
REMARK  251  A    between atoms: _625  and  _626
REMARK                            x       y       z     vdW  Elec       q    Type
REMARK                         _______ _______ _______ _____ _____    ______ ____
ROOT
ATOM      1  O   HOH     1      10.846  21.687   8.958  0.00  0.00    +0.000 OA
ENDROOT
TORSDOF 0
REMARK  Name = ../refined-set-2016/2am4/2am4_pocket.pdb
REMARK  251 active torsions:
REMARK  status: ('A' for Active; 'I' for Inactive)
REMARK    1  A    between atoms: _1  and  _3
REMARK    2  A    between atoms: _3  and  _4
REMARK    3  A    between atoms: _3  and  _6
REMARK    4  A    between atoms: _6  and  _7
REMARK    5  A    between atoms: _10  and  _12
REMARK    6  A    between atoms: _12  and  _13
REMARK    7  A    between atoms: _12  and  _15
REMARK    8  A    between atoms: _18  and  _20
REMARK    9  A    between atoms: _20  and  _21
REMARK   10  A    between atoms: _20  and  _23
REMARK   11  A    between atoms: _23  and  _24
REMARK   12  A    between atoms: _27  and  _29
REMARK   13  A    between atoms: _29  and  _30
REMARK   14  A    between atoms: _33  and  _35
REMARK   15  A    between atoms: _35  and  _36
REMARK   16  A    between atoms: _35  and  _38
REMARK   17  A    between atoms: _38  and  _39
REMARK   18  A    between atoms: _39  and  _109
REMARK   19  A    between atoms: _40  and  _42
REMARK   20  A    between atoms: _42  and  _43
REMARK   21  A    between atoms: _42  and  _45
REMARK   22  A    between atoms: _45  and  _46
REMARK   23  A    between atoms: _49  and  _51
REMARK   24  A    between atoms: _51  and  _52
REMARK   25  A    between atoms: _51  and  _54
REMARK   26  A    between atoms: _54  and  _55
REMARK   27  A    between atoms: _55  and  _56
REMARK   28  A    between atoms: _56  and  _57
REMARK   29  A    between atoms: _66  and  _68
REMARK   30  A    between atoms: _68  and  _69
REMARK   31  A    between atoms: _68  and  _71
REMARK   32  A    between atoms: _74  and  _76
REMARK   33  A    between atoms: _76  and  _77
REMARK   34  A    between atoms: _76  and  _79
REMARK   35  A    between atoms: _79  and  _80
REMARK   36  A    between atoms: _82  and  _84
REMARK   37  A    between atoms: _84  and  _85
REMARK   38  A    between atoms: _84  and  _87
REMARK   39  A    between atoms: _87  and  _88
REMARK   40  A    between atoms: _88  and  _89
REMARK   41  A    between atoms: _94  and  _96
REMARK   42  A    between atoms: _96  and  _97
REMARK   43  A    between atoms: _96  and  _99
REMARK   44  A    between atoms: _99  and  _100
REMARK   45  A    between atoms: _103  and  _105
REMARK   46  A    between atoms: _105  and  _106
REMARK   47  A    between atoms: _105  and  _108
REMARK   48  A    between atoms: _108  and  _109
REMARK   49  A    between atoms: _110  and  _112
REMARK   50  A    between atoms: _112  and  _113
REMARK   51  A    between atoms: _115  and  _117
REMARK   52  A    between atoms: _117  and  _118
REMARK   53  A    between atoms: _117  and  _120
REMARK   54  A    between atoms: _120  and  _121
REMARK   55  A    between atoms: _124  and  _126
REMARK   56  A    between atoms: _126  and  _127
REMARK   57  A    between atoms: _126  and  _129
REMARK   58  A    between atoms: _129  and  _130
REMARK   59  A    between atoms: _130  and  _131
REMARK   60  A    between atoms: _136  and  _138
REMARK   61  A    between atoms: _138  and  _139
REMARK   62  A    between atoms: _138  and  _141
REMARK   63  A    between atoms: _141  and  _142
REMARK   64  A    between atoms: _145  and  _147
REMARK   65  A    between atoms: _147  and  _148
REMARK   66  A    between atoms: _147  and  _150
REMARK   67  A    between atoms: _150  and  _151
REMARK   68  A    between atoms: _154  and  _156
REMARK   69  A    between atoms: _156  and  _157
REMARK   70  A    between atoms: _156  and  _159
REMARK   71  A    between atoms: _159  and  _160
REMARK   72  A    between atoms: _166  and  _168
REMARK   73  A    between atoms: _168  and  _169
REMARK   74  A    between atoms: _168  and  _171
REMARK   75  A    between atoms: _171  and  _172
REMARK   76  A    between atoms: _172  and  _173
REMARK   77  A    between atoms: _178  and  _180
REMARK   78  A    between atoms: _180  and  _181
REMARK   79  A    between atoms: _183  and  _185
REMARK   80  A    between atoms: _185  and  _186
REMARK   81  A    between atoms: _185  and  _188
REMARK   82  A    between atoms: _188  and  _189
REMARK   83  A    between atoms: _194  and  _195
REMARK   84  A    between atoms: _197  and  _199
REMARK   85  A    between atoms: _199  and  _200
REMARK   86  A    between atoms: _199  and  _202
REMARK   87  A    between atoms: _202  and  _203
REMARK   88  A    between atoms: _208  and  _209
REMARK   89  A    between atoms: _211  and  _213
REMARK   90  A    between atoms: _213  and  _214
REMARK   91  A    between atoms: _213  and  _216
REMARK   92  A    between atoms: _216  and  _217
REMARK   93  A    between atoms: _217  and  _218
REMARK   94  A    between atoms: _218  and  _219
REMARK   95  A    between atoms: _219  and  _220
REMARK   96  A    between atoms: _224  and  _226
REMARK   97  A    between atoms: _226  and  _227
REMARK   98  A    between atoms: _226  and  _229
REMARK   99  A    between atoms: _229  and  _230
REMARK  100  A    between atoms: _233  and  _235
REMARK  101  A    between atoms: _235  and  _236
REMARK  102  A    between atoms: _239  and  _241
REMARK  103  A    between atoms: _241  and  _242
REMARK  104  A    between atoms: _241  and  _244
REMARK  105  A    between atoms: _244  and  _245
REMARK  106  A    between atoms: _245  and  _246
REMARK  107  A    between atoms: _246  and  _247
REMARK  108  A    between atoms: _256  and  _258
REMARK  109  A    between atoms: _258  and  _259
REMARK  110  A    between atoms: _258  and  _261
REMARK  111  A    between atoms: _261  and  _262
REMARK  112  A    between atoms: _267  and  _269
REMARK  113  A    between atoms: _269  and  _270
REMARK  114  A    between atoms: _269  and  _272
REMARK  115  A    between atoms: _272  and  _273
REMARK  116  A    between atoms: _278  and  _279
REMARK  117  A    between atoms: _281  and  _283
REMARK  118  A    between atoms: _283  and  _284
REMARK  119  A    between atoms: _287  and  _289
REMARK  120  A    between atoms: _289  and  _290
REMARK  121  A    between atoms: _289  and  _292
REMARK  122  A    between atoms: _295  and  _297
REMARK  123  A    between atoms: _297  and  _298
REMARK  124  A    between atoms: _297  and  _300
REMARK  125  A    between atoms: _303  and  _305
REMARK  126  A    between atoms: _305  and  _306
REMARK  127  A    between atoms: _305  and  _308
REMARK  128  A    between atoms: _308  and  _309
REMARK  129  A    between atoms: _309  and  _310
REMARK  130  A    between atoms: _313  and  _315
REMARK  131  A    between atoms: _315  and  _316
REMARK  132  A    between atoms: _315  and  _318
REMARK  133  A    between atoms: _318  and  _319
REMARK  134  A    between atoms: _322  and  _324
REMARK  135  A    between atoms: _324  and  _325
REMARK  136  A    between atoms: _324  and  _327
REMARK  137  A    between atoms: _327  and  _328
REMARK  138  A    between atoms: _328  and  _330
REMARK  139  A    between atoms: _330  and  MN_635
REMARK  140  A    between atoms: _331  and  _333
REMARK  141  A    between atoms: _333  and  _334
REMARK  142  A    between atoms: _333  and  _336
REMARK  143  A    between atoms: _336  and  _337
REMARK  144  A    between atoms: _340  and  _342
REMARK  145  A    between atoms: _342  and  _343
REMARK  146  A    between atoms: _342  and  _345
REMARK  147  A    between atoms: _345  and  _346
REMARK  148  A    between atoms: _353  and  _354
REMARK  149  A    between atoms: _359  and  _361
REMARK  150  A    between atoms: _361  and  _362
REMARK  151  A    between atoms: _364  and  _366
REMARK  152  A    between atoms: _366  and  _367
REMARK  153  A    between atoms: _366  and  _369
REMARK  154  A    between atoms: _369  and  _370
REMARK  155  A    between atoms: _373  and  _375
REMARK  156  A    between atoms: _375  and  _376
REMARK  157  A    between atoms: _378  and  _380
REMARK  158  A    between atoms: _380  and  _381
REMARK  159  A    between atoms: _380  and  _383
REMARK  160  A    between atoms: _383  and  _384
REMARK  161  A    between atoms: _394  and  _396
REMARK  162  A    between atoms: _396  and  _397
REMARK  163  A    between atoms: _400  and  _402
REMARK  164  A    between atoms: _402  and  _403
REMARK  165  A    between atoms: _402  and  _405
REMARK  166  A    between atoms: _405  and  _406
REMARK  167  A    between atoms: _412  and  _414
REMARK  168  A    between atoms: _414  and  _415
REMARK  169  A    between atoms: _414  and  _417
REMARK  170  A    between atoms: _417  and  _418
REMARK  171  A    between atoms: _428  and  _430
REMARK  172  A    between atoms: _430  and  _431
REMARK  173  A    between atoms: _430  and  _433
REMARK  174  A    between atoms: _433  and  _434
REMARK  175  A    between atoms: _437  and  _439
REMARK  176  A    between atoms: _439  and  _440
REMARK  177  A    between atoms: _439  and  _442
REMARK  178  A    between atoms: _442  and  _443
REMARK  179  A    between atoms: _446  and  _448
REMARK  180  A    between atoms: _448  and  _449
REMARK  181  A    between atoms: _448  and  _451
REMARK  182  A    between atoms: _451  and  _452
REMARK  183  A    between atoms: _462  and  _464
REMARK  184  A    between atoms: _464  and  _465
REMARK  185  A    between atoms: _464  and  _467
REMARK  186  A    between atoms: _467  and  _468
REMARK  187  A    between atoms: _468  and  _469
REMARK  188  A    between atoms: _469  and  _470
REMARK  189  A    between atoms: _479  and  _481
REMARK  190  A    between atoms: _481  and  _482
REMARK  191  A    between atoms: _481  and  _484
REMARK  192  A    between atoms: _484  and  _485
REMARK  193  A    between atoms: _488  and  _490
REMARK  194  A    between atoms: _490  and  _491
REMARK  195  A    between atoms: _490  and  _493
REMARK  196  A    between atoms: _493  and  _494
REMARK  197  A    between atoms: _500  and  _502
REMARK  198  A    between atoms: _502  and  _503
REMARK  199  A    between atoms: _505  and  _507
REMARK  200  A    between atoms: _507  and  _508
REMARK  201  A    between atoms: _507  and  _510
REMARK  202  A    between atoms: _510  and  _511
REMARK  203  A    between atoms: _511  and  _512
REMARK  204  A    between atoms: _512  and  _513
REMARK  205  A    between atoms: _522  and  _524
REMARK  206  A    between atoms: _524  and  _525
REMARK  207  A    between atoms: _524  and  _527
REMARK  208  A    between atoms: _527  and  _528
REMARK  209  A    between atoms: _528  and  _529
REMARK  210  A    between atoms: _529  and  _530
REMARK  211  A    between atoms: _530  and  _531
REMARK  212  A    between atoms: _535  and  _537
REMARK  213  A    between atoms: _537  and  _538
REMARK  214  A    between atoms: _540  and  _542
REMARK  215  A    between atoms: _542  and  _543
REMARK  216  A    between atoms: _542  and  _545
REMARK  217  A    between atoms: _548  and  _550
REMARK  218  A    between atoms: _550  and  _551
REMARK  219  A    between atoms: _550  and  _553
REMARK  220  A    between atoms: _553  and  _554
REMARK  221  A    between atoms: _556  and  _558
REMARK  222  A    between atoms: _558  and  _559
REMARK  223  A    between atoms: _558  and  _561
REMARK  224  A    between atoms: _561  and  _562
REMARK  225  A    between atoms: _567  and  _569
REMARK  226  A    between atoms: _569  and  _570
REMARK  227  A    between atoms: _572  and  _574
REMARK  228  A    between atoms: _574  and  _575
REMARK  229  A    between atoms: _574  and  _577
REMARK  230  A    between atoms: _577  and  _578
REMARK  231  A    between atoms: _584  and  _586
REMARK  232  A    between atoms: _586  and  _587
REMARK  233  A    between atoms: _586  and  _589
REMARK  234  A    between atoms: _589  and  _590
REMARK  235  A    between atoms: _596  and  _598
REMARK  236  A    between atoms: _598  and  _599
REMARK  237  A    between atoms: _598  and  _601
REMARK  238  A    between atoms: _601  and  _602
REMARK  239  A    between atoms: _605  and  _607
REMARK  240  A    between atoms: _607  and  _608
REMARK  241  A    between atoms: _607  and  _610
REMARK  242  A    between atoms: _610  and  _611
REMARK  243  A    between atoms: _611  and  _612
REMARK  244  A    between atoms: _612  and  _613
REMARK  245  A    between atoms: _613  and  _614
REMARK  246  A    between atoms: _618  and  _620
REMARK  247  A    between atoms: _620  and  _621
REMARK  248  A    between atoms: _620  and  _623
REMARK  249  A    between atoms: _623  and  _624
REMARK  250  A    between atoms: _624  and  _625
REMARK  251  A    between atoms: _625  and  _626
REMARK                            x       y       z     vdW  Elec       q    Type
REMARK                         _______ _______ _______ _____ _____    ______ ____
ROOT
ATOM      1  O   HOH     1       5.359  16.434  20.837  0.00  0.00    +0.000 OA
ENDROOT
TORSDOF 0
REMARK  Name = ../refined-set-2016/2am4/2am4_pocket.pdb
REMARK  251 active torsions:
REMARK  status: ('A' for Active; 'I' for Inactive)
REMARK    1  A    between atoms: _1  and  _3
REMARK    2  A    between atoms: _3  and  _4
REMARK    3  A    between atoms: _3  and  _6
REMARK    4  A    between atoms: _6  and  _7
REMARK    5  A    between atoms: _10  and  _12
REMARK    6  A    between atoms: _12  and  _13
REMARK    7  A    between atoms: _12  and  _15
REMARK    8  A    between atoms: _18  and  _20
REMARK    9  A    between atoms: _20  and  _21
REMARK   10  A    between atoms: _20  and  _23
REMARK   11  A    between atoms: _23  and  _24
REMARK   12  A    between atoms: _27  and  _29
REMARK   13  A    between atoms: _29  and  _30
REMARK   14  A    between atoms: _33  and  _35
REMARK   15  A    between atoms: _35  and  _36
REMARK   16  A    between atoms: _35  and  _38
REMARK   17  A    between atoms: _38  and  _39
REMARK   18  A    between atoms: _39  and  _109
REMARK   19  A    between atoms: _40  and  _42
REMARK   20  A    between atoms: _42  and  _43
REMARK   21  A    between atoms: _42  and  _45
REMARK   22  A    between atoms: _45  and  _46
REMARK   23  A    between atoms: _49  and  _51
REMARK   24  A    between atoms: _51  and  _52
REMARK   25  A    between atoms: _51  and  _54
REMARK   26  A    between atoms: _54  and  _55
REMARK   27  A    between atoms: _55  and  _56
REMARK   28  A    between atoms: _56  and  _57
REMARK   29  A    between atoms: _66  and  _68
REMARK   30  A    between atoms: _68  and  _69
REMARK   31  A    between atoms: _68  and  _71
REMARK   32  A    between atoms: _74  and  _76
REMARK   33  A    between atoms: _76  and  _77
REMARK   34  A    between atoms: _76  and  _79
REMARK   35  A    between atoms: _79  and  _80
REMARK   36  A    between atoms: _82  and  _84
REMARK   37  A    between atoms: _84  and  _85
REMARK   38  A    between atoms: _84  and  _87
REMARK   39  A    between atoms: _87  and  _88
REMARK   40  A    between atoms: _88  and  _89
REMARK   41  A    between atoms: _94  and  _96
REMARK   42  A    between atoms: _96  and  _97
REMARK   43  A    between atoms: _96  and  _99
REMARK   44  A    between atoms: _99  and  _100
REMARK   45  A    between atoms: _103  and  _105
REMARK   46  A    between atoms: _105  and  _106
REMARK   47  A    between atoms: _105  and  _108
REMARK   48  A    between atoms: _108  and  _109
REMARK   49  A    between atoms: _110  and  _112
REMARK   50  A    between atoms: _112  and  _113
REMARK   51  A    between atoms: _115  and  _117
REMARK   52  A    between atoms: _117  and  _118
REMARK   53  A    between atoms: _117  and  _120
REMARK   54  A    between atoms: _120  and  _121
REMARK   55  A    between atoms: _124  and  _126
REMARK   56  A    between atoms: _126  and  _127
REMARK   57  A    between atoms: _126  and  _129
REMARK   58  A    between atoms: _129  and  _130
REMARK   59  A    between atoms: _130  and  _131
REMARK   60  A    between atoms: _136  and  _138
REMARK   61  A    between atoms: _138  and  _139
REMARK   62  A    between atoms: _138  and  _141
REMARK   63  A    between atoms: _141  and  _142
REMARK   64  A    between atoms: _145  and  _147
REMARK   65  A    between atoms: _147  and  _148
REMARK   66  A    between atoms: _147  and  _150
REMARK   67  A    between atoms: _150  and  _151
REMARK   68  A    between atoms: _154  and  _156
REMARK   69  A    between atoms: _156  and  _157
REMARK   70  A    between atoms: _156  and  _159
REMARK   71  A    between atoms: _159  and  _160
REMARK   72  A    between atoms: _166  and  _168
REMARK   73  A    between atoms: _168  and  _169
REMARK   74  A    between atoms: _168  and  _171
REMARK   75  A    between atoms: _171  and  _172
REMARK   76  A    between atoms: _172  and  _173
REMARK   77  A    between atoms: _178  and  _180
REMARK   78  A    between atoms: _180  and  _181
REMARK   79  A    between atoms: _183  and  _185
REMARK   80  A    between atoms: _185  and  _186
REMARK   81  A    between atoms: _185  and  _188
REMARK   82  A    between atoms: _188  and  _189
REMARK   83  A    between atoms: _194  and  _195
REMARK   84  A    between atoms: _197  and  _199
REMARK   85  A    between atoms: _199  and  _200
REMARK   86  A    between atoms: _199  and  _202
REMARK   87  A    between atoms: _202  and  _203
REMARK   88  A    between atoms: _208  and  _209
REMARK   89  A    between atoms: _211  and  _213
REMARK   90  A    between atoms: _213  and  _214
REMARK   91  A    between atoms: _213  and  _216
REMARK   92  A    between atoms: _216  and  _217
REMARK   93  A    between atoms: _217  and  _218
REMARK   94  A    between atoms: _218  and  _219
REMARK   95  A    between atoms: _219  and  _220
REMARK   96  A    between atoms: _224  and  _226
REMARK   97  A    between atoms: _226  and  _227
REMARK   98  A    between atoms: _226  and  _229
REMARK   99  A    between atoms: _229  and  _230
REMARK  100  A    between atoms: _233  and  _235
REMARK  101  A    between atoms: _235  and  _236
REMARK  102  A    between atoms: _239  and  _241
REMARK  103  A    between atoms: _241  and  _242
REMARK  104  A    between atoms: _241  and  _244
REMARK  105  A    between atoms: _244  and  _245
REMARK  106  A    between atoms: _245  and  _246
REMARK  107  A    between atoms: _246  and  _247
REMARK  108  A    between atoms: _256  and  _258
REMARK  109  A    between atoms: _258  and  _259
REMARK  110  A    between atoms: _258  and  _261
REMARK  111  A    between atoms: _261  and  _262
REMARK  112  A    between atoms: _267  and  _269
REMARK  113  A    between atoms: _269  and  _270
REMARK  114  A    between atoms: _269  and  _272
REMARK  115  A    between atoms: _272  and  _273
REMARK  116  A    between atoms: _278  and  _279
REMARK  117  A    between atoms: _281  and  _283
REMARK  118  A    between atoms: _283  and  _284
REMARK  119  A    between atoms: _287  and  _289
REMARK  120  A    between atoms: _289  and  _290
REMARK  121  A    between atoms: _289  and  _292
REMARK  122  A    between atoms: _295  and  _297
REMARK  123  A    between atoms: _297  and  _298
REMARK  124  A    between atoms: _297  and  _300
REMARK  125  A    between atoms: _303  and  _305
REMARK  126  A    between atoms: _305  and  _306
REMARK  127  A    between atoms: _305  and  _308
REMARK  128  A    between atoms: _308  and  _309
REMARK  129  A    between atoms: _309  and  _310
REMARK  130  A    between atoms: _313  and  _315
REMARK  131  A    between atoms: _315  and  _316
REMARK  132  A    between atoms: _315  and  _318
REMARK  133  A    between atoms: _318  and  _319
REMARK  134  A    between atoms: _322  and  _324
REMARK  135  A    between atoms: _324  and  _325
REMARK  136  A    between atoms: _324  and  _327
REMARK  137  A    between atoms: _327  and  _328
REMARK  138  A    between atoms: _328  and  _330
REMARK  139  A    between atoms: _330  and  MN_635
REMARK  140  A    between atoms: _331  and  _333
REMARK  141  A    between atoms: _333  and  _334
REMARK  142  A    between atoms: _333  and  _336
REMARK  143  A    between atoms: _336  and  _337
REMARK  144  A    between atoms: _340  and  _342
REMARK  145  A    between atoms: _342  and  _343
REMARK  146  A    between atoms: _342  and  _345
REMARK  147  A    between atoms: _345  and  _346
REMARK  148  A    between atoms: _353  and  _354
REMARK  149  A    between atoms: _359  and  _361
REMARK  150  A    between atoms: _361  and  _362
REMARK  151  A    between atoms: _364  and  _366
REMARK  152  A    between atoms: _366  and  _367
REMARK  153  A    between atoms: _366  and  _369
REMARK  154  A    between atoms: _369  and  _370
REMARK  155  A    between atoms: _373  and  _375
REMARK  156  A    between atoms: _375  and  _376
REMARK  157  A    between atoms: _378  and  _380
REMARK  158  A    between atoms: _380  and  _381
REMARK  159  A    between atoms: _380  and  _383
REMARK  160  A    between atoms: _383  and  _384
REMARK  161  A    between atoms: _394  and  _396
REMARK  162  A    between atoms: _396  and  _397
REMARK  163  A    between atoms: _400  and  _402
REMARK  164  A    between atoms: _402  and  _403
REMARK  165  A    between atoms: _402  and  _405
REMARK  166  A    between atoms: _405  and  _406
REMARK  167  A    between atoms: _412  and  _414
REMARK  168  A    between atoms: _414  and  _415
REMARK  169  A    between atoms: _414  and  _417
REMARK  170  A    between atoms: _417  and  _418
REMARK  171  A    between atoms: _428  and  _430
REMARK  172  A    between atoms: _430  and  _431
REMARK  173  A    between atoms: _430  and  _433
REMARK  174  A    between atoms: _433  and  _434
REMARK  175  A    between atoms: _437  and  _439
REMARK  176  A    between atoms: _439  and  _440
REMARK  177  A    between atoms: _439  and  _442
REMARK  178  A    between atoms: _442  and  _443
REMARK  179  A    between atoms: _446  and  _448
REMARK  180  A    between atoms: _448  and  _449
REMARK  181  A    between atoms: _448  and  _451
REMARK  182  A    between atoms: _451  and  _452
REMARK  183  A    between atoms: _462  and  _464
REMARK  184  A    between atoms: _464  and  _465
REMARK  185  A    between atoms: _464  and  _467
REMARK  186  A    between atoms: _467  and  _468
REMARK  187  A    between atoms: _468  and  _469
REMARK  188  A    between atoms: _469  and  _470
REMARK  189  A    between atoms: _479  and  _481
REMARK  190  A    between atoms: _481  and  _482
REMARK  191  A    between atoms: _481  and  _484
REMARK  192  A    between atoms: _484  and  _485
REMARK  193  A    between atoms: _488  and  _490
REMARK  194  A    between atoms: _490  and  _491
REMARK  195  A    between atoms: _490  and  _493
REMARK  196  A    between atoms: _493  and  _494
REMARK  197  A    between atoms: _500  and  _502
REMARK  198  A    between atoms: _502  and  _503
REMARK  199  A    between atoms: _505  and  _507
REMARK  200  A    between atoms: _507  and  _508
REMARK  201  A    between atoms: _507  and  _510
REMARK  202  A    between atoms: _510  and  _511
REMARK  203  A    between atoms: _511  and  _512
REMARK  204  A    between atoms: _512  and  _513
REMARK  205  A    between atoms: _522  and  _524
REMARK  206  A    between atoms: _524  and  _525
REMARK  207  A    between atoms: _524  and  _527
REMARK  208  A    between atoms: _527  and  _528
REMARK  209  A    between atoms: _528  and  _529
REMARK  210  A    between atoms: _529  and  _530
REMARK  211  A    between atoms: _530  and  _531
REMARK  212  A    between atoms: _535  and  _537
REMARK  213  A    between atoms: _537  and  _538
REMARK  214  A    between atoms: _540  and  _542
REMARK  215  A    between atoms: _542  and  _543
REMARK  216  A    between atoms: _542  and  _545
REMARK  217  A    between atoms: _548  and  _550
REMARK  218  A    between atoms: _550  and  _551
REMARK  219  A    between atoms: _550  and  _553
REMARK  220  A    between atoms: _553  and  _554
REMARK  221  A    between atoms: _556  and  _558
REMARK  222  A    between atoms: _558  and  _559
REMARK  223  A    between atoms: _558  and  _561
REMARK  224  A    between atoms: _561  and  _562
REMARK  225  A    between atoms: _567  and  _569
REMARK  226  A    between atoms: _569  and  _570
REMARK  227  A    between atoms: _572  and  _574
REMARK  228  A    between atoms: _574  and  _575
REMARK  229  A    between atoms: _574  and  _577
REMARK  230  A    between atoms: _577  and  _578
REMARK  231  A    between atoms: _584  and  _586
REMARK  232  A    between atoms: _586  and  _587
REMARK  233  A    between atoms: _586  and  _589
REMARK  234  A    between atoms: _589  and  _590
REMARK  235  A    between atoms: _596  and  _598
REMARK  236  A    between atoms: _598  and  _599
REMARK  237  A    between atoms: _598  and  _601
REMARK  238  A    between atoms: _601  and  _602
REMARK  239  A    between atoms: _605  and  _607
REMARK  240  A    between atoms: _607  and  _608
REMARK  241  A    between atoms: _607  and  _610
REMARK  242  A    between atoms: _610  and  _611
REMARK  243  A    between atoms: _611  and  _612
REMARK  244  A    between atoms: _612  and  _613
REMARK  245  A    between atoms: _613  and  _614
REMARK  246  A    between atoms: _618  and  _620
REMARK  247  A    between atoms: _620  and  _621
REMARK  248  A    between atoms: _620  and  _623
REMARK  249  A    between atoms: _623  and  _624
REMARK  250  A    between atoms: _624  and  _625
REMARK  251  A    between atoms: _625  and  _626
REMARK                            x       y       z     vdW  Elec       q    Type
REMARK                         _______ _______ _______ _____ _____    ______ ____
ROOT
ATOM      1  O   HOH     1       5.111  17.258  18.217  0.00  0.00    +0.000 OA
ENDROOT
TORSDOF 0
REMARK  Name = ../refined-set-2016/2am4/2am4_pocket.pdb
REMARK  251 active torsions:
REMARK  status: ('A' for Active; 'I' for Inactive)
REMARK    1  A    between atoms: _1  and  _3
REMARK    2  A    between atoms: _3  and  _4
REMARK    3  A    between atoms: _3  and  _6
REMARK    4  A    between atoms: _6  and  _7
REMARK    5  A    between atoms: _10  and  _12
REMARK    6  A    between atoms: _12  and  _13
REMARK    7  A    between atoms: _12  and  _15
REMARK    8  A    between atoms: _18  and  _20
REMARK    9  A    between atoms: _20  and  _21
REMARK   10  A    between atoms: _20  and  _23
REMARK   11  A    between atoms: _23  and  _24
REMARK   12  A    between atoms: _27  and  _29
REMARK   13  A    between atoms: _29  and  _30
REMARK   14  A    between atoms: _33  and  _35
REMARK   15  A    between atoms: _35  and  _36
REMARK   16  A    between atoms: _35  and  _38
REMARK   17  A    between atoms: _38  and  _39
REMARK   18  A    between atoms: _39  and  _109
REMARK   19  A    between atoms: _40  and  _42
REMARK   20  A    between atoms: _42  and  _43
REMARK   21  A    between atoms: _42  and  _45
REMARK   22  A    between atoms: _45  and  _46
REMARK   23  A    between atoms: _49  and  _51
REMARK   24  A    between atoms: _51  and  _52
REMARK   25  A    between atoms: _51  and  _54
REMARK   26  A    between atoms: _54  and  _55
REMARK   27  A    between atoms: _55  and  _56
REMARK   28  A    between atoms: _56  and  _57
REMARK   29  A    between atoms: _66  and  _68
REMARK   30  A    between atoms: _68  and  _69
REMARK   31  A    between atoms: _68  and  _71
REMARK   32  A    between atoms: _74  and  _76
REMARK   33  A    between atoms: _76  and  _77
REMARK   34  A    between atoms: _76  and  _79
REMARK   35  A    between atoms: _79  and  _80
REMARK   36  A    between atoms: _82  and  _84
REMARK   37  A    between atoms: _84  and  _85
REMARK   38  A    between atoms: _84  and  _87
REMARK   39  A    between atoms: _87  and  _88
REMARK   40  A    between atoms: _88  and  _89
REMARK   41  A    between atoms: _94  and  _96
REMARK   42  A    between atoms: _96  and  _97
REMARK   43  A    between atoms: _96  and  _99
REMARK   44  A    between atoms: _99  and  _100
REMARK   45  A    between atoms: _103  and  _105
REMARK   46  A    between atoms: _105  and  _106
REMARK   47  A    between atoms: _105  and  _108
REMARK   48  A    between atoms: _108  and  _109
REMARK   49  A    between atoms: _110  and  _112
REMARK   50  A    between atoms: _112  and  _113
REMARK   51  A    between atoms: _115  and  _117
REMARK   52  A    between atoms: _117  and  _118
REMARK   53  A    between atoms: _117  and  _120
REMARK   54  A    between atoms: _120  and  _121
REMARK   55  A    between atoms: _124  and  _126
REMARK   56  A    between atoms: _126  and  _127
REMARK   57  A    between atoms: _126  and  _129
REMARK   58  A    between atoms: _129  and  _130
REMARK   59  A    between atoms: _130  and  _131
REMARK   60  A    between atoms: _136  and  _138
REMARK   61  A    between atoms: _138  and  _139
REMARK   62  A    between atoms: _138  and  _141
REMARK   63  A    between atoms: _141  and  _142
REMARK   64  A    between atoms: _145  and  _147
REMARK   65  A    between atoms: _147  and  _148
REMARK   66  A    between atoms: _147  and  _150
REMARK   67  A    between atoms: _150  and  _151
REMARK   68  A    between atoms: _154  and  _156
REMARK   69  A    between atoms: _156  and  _157
REMARK   70  A    between atoms: _156  and  _159
REMARK   71  A    between atoms: _159  and  _160
REMARK   72  A    between atoms: _166  and  _168
REMARK   73  A    between atoms: _168  and  _169
REMARK   74  A    between atoms: _168  and  _171
REMARK   75  A    between atoms: _171  and  _172
REMARK   76  A    between atoms: _172  and  _173
REMARK   77  A    between atoms: _178  and  _180
REMARK   78  A    between atoms: _180  and  _181
REMARK   79  A    between atoms: _183  and  _185
REMARK   80  A    between atoms: _185  and  _186
REMARK   81  A    between atoms: _185  and  _188
REMARK   82  A    between atoms: _188  and  _189
REMARK   83  A    between atoms: _194  and  _195
REMARK   84  A    between atoms: _197  and  _199
REMARK   85  A    between atoms: _199  and  _200
REMARK   86  A    between atoms: _199  and  _202
REMARK   87  A    between atoms: _202  and  _203
REMARK   88  A    between atoms: _208  and  _209
REMARK   89  A    between atoms: _211  and  _213
REMARK   90  A    between atoms: _213  and  _214
REMARK   91  A    between atoms: _213  and  _216
REMARK   92  A    between atoms: _216  and  _217
REMARK   93  A    between atoms: _217  and  _218
REMARK   94  A    between atoms: _218  and  _219
REMARK   95  A    between atoms: _219  and  _220
REMARK   96  A    between atoms: _224  and  _226
REMARK   97  A    between atoms: _226  and  _227
REMARK   98  A    between atoms: _226  and  _229
REMARK   99  A    between atoms: _229  and  _230
REMARK  100  A    between atoms: _233  and  _235
REMARK  101  A    between atoms: _235  and  _236
REMARK  102  A    between atoms: _239  and  _241
REMARK  103  A    between atoms: _241  and  _242
REMARK  104  A    between atoms: _241  and  _244
REMARK  105  A    between atoms: _244  and  _245
REMARK  106  A    between atoms: _245  and  _246
REMARK  107  A    between atoms: _246  and  _247
REMARK  108  A    between atoms: _256  and  _258
REMARK  109  A    between atoms: _258  and  _259
REMARK  110  A    between atoms: _258  and  _261
REMARK  111  A    between atoms: _261  and  _262
REMARK  112  A    between atoms: _267  and  _269
REMARK  113  A    between atoms: _269  and  _270
REMARK  114  A    between atoms: _269  and  _272
REMARK  115  A    between atoms: _272  and  _273
REMARK  116  A    between atoms: _278  and  _279
REMARK  117  A    between atoms: _281  and  _283
REMARK  118  A    between atoms: _283  and  _284
REMARK  119  A    between atoms: _287  and  _289
REMARK  120  A    between atoms: _289  and  _290
REMARK  121  A    between atoms: _289  and  _292
REMARK  122  A    between atoms: _295  and  _297
REMARK  123  A    between atoms: _297  and  _298
REMARK  124  A    between atoms: _297  and  _300
REMARK  125  A    between atoms: _303  and  _305
REMARK  126  A    between atoms: _305  and  _306
REMARK  127  A    between atoms: _305  and  _308
REMARK  128  A    between atoms: _308  and  _309
REMARK  129  A    between atoms: _309  and  _310
REMARK  130  A    between atoms: _313  and  _315
REMARK  131  A    between atoms: _315  and  _316
REMARK  132  A    between atoms: _315  and  _318
REMARK  133  A    between atoms: _318  and  _319
REMARK  134  A    between atoms: _322  and  _324
REMARK  135  A    between atoms: _324  and  _325
REMARK  136  A    between atoms: _324  and  _327
REMARK  137  A    between atoms: _327  and  _328
REMARK  138  A    between atoms: _328  and  _330
REMARK  139  A    between atoms: _330  and  MN_635
REMARK  140  A    between atoms: _331  and  _333
REMARK  141  A    between atoms: _333  and  _334
REMARK  142  A    between atoms: _333  and  _336
REMARK  143  A    between atoms: _336  and  _337
REMARK  144  A    between atoms: _340  and  _342
REMARK  145  A    between atoms: _342  and  _343
REMARK  146  A    between atoms: _342  and  _345
REMARK  147  A    between atoms: _345  and  _346
REMARK  148  A    between atoms: _353  and  _354
REMARK  149  A    between atoms: _359  and  _361
REMARK  150  A    between atoms: _361  and  _362
REMARK  151  A    between atoms: _364  and  _366
REMARK  152  A    between atoms: _366  and  _367
REMARK  153  A    between atoms: _366  and  _369
REMARK  154  A    between atoms: _369  and  _370
REMARK  155  A    between atoms: _373  and  _375
REMARK  156  A    between atoms: _375  and  _376
REMARK  157  A    between atoms: _378  and  _380
REMARK  158  A    between atoms: _380  and  _381
REMARK  159  A    between atoms: _380  and  _383
REMARK  160  A    between atoms: _383  and  _384
REMARK  161  A    between atoms: _394  and  _396
REMARK  162  A    between atoms: _396  and  _397
REMARK  163  A    between atoms: _400  and  _402
REMARK  164  A    between atoms: _402  and  _403
REMARK  165  A    between atoms: _402  and  _405
REMARK  166  A    between atoms: _405  and  _406
REMARK  167  A    between atoms: _412  and  _414
REMARK  168  A    between atoms: _414  and  _415
REMARK  169  A    between atoms: _414  and  _417
REMARK  170  A    between atoms: _417  and  _418
REMARK  171  A    between atoms: _428  and  _430
REMARK  172  A    between atoms: _430  and  _431
REMARK  173  A    between atoms: _430  and  _433
REMARK  174  A    between atoms: _433  and  _434
REMARK  175  A    between atoms: _437  and  _439
REMARK  176  A    between atoms: _439  and  _440
REMARK  177  A    between atoms: _439  and  _442
REMARK  178  A    between atoms: _442  and  _443
REMARK  179  A    between atoms: _446  and  _448
REMARK  180  A    between atoms: _448  and  _449
REMARK  181  A    between atoms: _448  and  _451
REMARK  182  A    between atoms: _451  and  _452
REMARK  183  A    between atoms: _462  and  _464
REMARK  184  A    between atoms: _464  and  _465
REMARK  185  A    between atoms: _464  and  _467
REMARK  186  A    between atoms: _467  and  _468
REMARK  187  A    between atoms: _468  and  _469
REMARK  188  A    between atoms: _469  and  _470
REMARK  189  A    between atoms: _479  and  _481
REMARK  190  A    between atoms: _481  and  _482
REMARK  191  A    between atoms: _481  and  _484
REMARK  192  A    between atoms: _484  and  _485
REMARK  193  A    between atoms: _488  and  _490
REMARK  194  A    between atoms: _490  and  _491
REMARK  195  A    between atoms: _490  and  _493
REMARK  196  A    between atoms: _493  and  _494
REMARK  197  A    between atoms: _500  and  _502
REMARK  198  A    between atoms: _502  and  _503
REMARK  199  A    between atoms: _505  and  _507
REMARK  200  A    between atoms: _507  and  _508
REMARK  201  A    between atoms: _507  and  _510
REMARK  202  A    between atoms: _510  and  _511
REMARK  203  A    between atoms: _511  and  _512
REMARK  204  A    between atoms: _512  and  _513
REMARK  205  A    between atoms: _522  and  _524
REMARK  206  A    between atoms: _524  and  _525
REMARK  207  A    between atoms: _524  and  _527
REMARK  208  A    between atoms: _527  and  _528
REMARK  209  A    between atoms: _528  and  _529
REMARK  210  A    between atoms: _529  and  _530
REMARK  211  A    between atoms: _530  and  _531
REMARK  212  A    between atoms: _535  and  _537
REMARK  213  A    between atoms: _537  and  _538
REMARK  214  A    between atoms: _540  and  _542
REMARK  215  A    between atoms: _542  and  _543
REMARK  216  A    between atoms: _542  and  _545
REMARK  217  A    between atoms: _548  and  _550
REMARK  218  A    between atoms: _550  and  _551
REMARK  219  A    between atoms: _550  and  _553
REMARK  220  A    between atoms: _553  and  _554
REMARK  221  A    between atoms: _556  and  _558
REMARK  222  A    between atoms: _558  and  _559
REMARK  223  A    between atoms: _558  and  _561
REMARK  224  A    between atoms: _561  and  _562
REMARK  225  A    between atoms: _567  and  _569
REMARK  226  A    between atoms: _569  and  _570
REMARK  227  A    between atoms: _572  and  _574
REMARK  228  A    between atoms: _574  and  _575
REMARK  229  A    between atoms: _574  and  _577
REMARK  230  A    between atoms: _577  and  _578
REMARK  231  A    between atoms: _584  and  _586
REMARK  232  A    between atoms: _586  and  _587
REMARK  233  A    between atoms: _586  and  _589
REMARK  234  A    between atoms: _589  and  _590
REMARK  235  A    between atoms: _596  and  _598
REMARK  236  A    between atoms: _598  and  _599
REMARK  237  A    between atoms: _598  and  _601
REMARK  238  A    between atoms: _601  and  _602
REMARK  239  A    between atoms: _605  and  _607
REMARK  240  A    between atoms: _607  and  _608
REMARK  241  A    between atoms: _607  and  _610
REMARK  242  A    between atoms: _610  and  _611
REMARK  243  A    between atoms: _611  and  _612
REMARK  244  A    between atoms: _612  and  _613
REMARK  245  A    between atoms: _613  and  _614
REMARK  246  A    between atoms: _618  and  _620
REMARK  247  A    between atoms: _620  and  _621
REMARK  248  A    between atoms: _620  and  _623
REMARK  249  A    between atoms: _623  and  _624
REMARK  250  A    between atoms: _624  and  _625
REMARK  251  A    between atoms: _625  and  _626
REMARK                            x       y       z     vdW  Elec       q    Type
REMARK                         _______ _______ _______ _____ _____    ______ ____
ROOT
ATOM      1  O   HOH     1       4.002  19.589  21.139  0.00  0.00    +0.000 OA
ENDROOT
TORSDOF 0
REMARK  Name = ../refined-set-2016/2am4/2am4_pocket.pdb
REMARK  251 active torsions:
REMARK  status: ('A' for Active; 'I' for Inactive)
REMARK    1  A    between atoms: _1  and  _3
REMARK    2  A    between atoms: _3  and  _4
REMARK    3  A    between atoms: _3  and  _6
REMARK    4  A    between atoms: _6  and  _7
REMARK    5  A    between atoms: _10  and  _12
REMARK    6  A    between atoms: _12  and  _13
REMARK    7  A    between atoms: _12  and  _15
REMARK    8  A    between atoms: _18  and  _20
REMARK    9  A    between atoms: _20  and  _21
REMARK   10  A    between atoms: _20  and  _23
REMARK   11  A    between atoms: _23  and  _24
REMARK   12  A    between atoms: _27  and  _29
REMARK   13  A    between atoms: _29  and  _30
REMARK   14  A    between atoms: _33  and  _35
REMARK   15  A    between atoms: _35  and  _36
REMARK   16  A    between atoms: _35  and  _38
REMARK   17  A    between atoms: _38  and  _39
REMARK   18  A    between atoms: _39  and  _109
REMARK   19  A    between atoms: _40  and  _42
REMARK   20  A    between atoms: _42  and  _43
REMARK   21  A    between atoms: _42  and  _45
REMARK   22  A    between atoms: _45  and  _46
REMARK   23  A    between atoms: _49  and  _51
REMARK   24  A    between atoms: _51  and  _52
REMARK   25  A    between atoms: _51  and  _54
REMARK   26  A    between atoms: _54  and  _55
REMARK   27  A    between atoms: _55  and  _56
REMARK   28  A    between atoms: _56  and  _57
REMARK   29  A    between atoms: _66  and  _68
REMARK   30  A    between atoms: _68  and  _69
REMARK   31  A    between atoms: _68  and  _71
REMARK   32  A    between atoms: _74  and  _76
REMARK   33  A    between atoms: _76  and  _77
REMARK   34  A    between atoms: _76  and  _79
REMARK   35  A    between atoms: _79  and  _80
REMARK   36  A    between atoms: _82  and  _84
REMARK   37  A    between atoms: _84  and  _85
REMARK   38  A    between atoms: _84  and  _87
REMARK   39  A    between atoms: _87  and  _88
REMARK   40  A    between atoms: _88  and  _89
REMARK   41  A    between atoms: _94  and  _96
REMARK   42  A    between atoms: _96  and  _97
REMARK   43  A    between atoms: _96  and  _99
REMARK   44  A    between atoms: _99  and  _100
REMARK   45  A    between atoms: _103  and  _105
REMARK   46  A    between atoms: _105  and  _106
REMARK   47  A    between atoms: _105  and  _108
REMARK   48  A    between atoms: _108  and  _109
REMARK   49  A    between atoms: _110  and  _112
REMARK   50  A    between atoms: _112  and  _113
REMARK   51  A    between atoms: _115  and  _117
REMARK   52  A    between atoms: _117  and  _118
REMARK   53  A    between atoms: _117  and  _120
REMARK   54  A    between atoms: _120  and  _121
REMARK   55  A    between atoms: _124  and  _126
REMARK   56  A    between atoms: _126  and  _127
REMARK   57  A    between atoms: _126  and  _129
REMARK   58  A    between atoms: _129  and  _130
REMARK   59  A    between atoms: _130  and  _131
REMARK   60  A    between atoms: _136  and  _138
REMARK   61  A    between atoms: _138  and  _139
REMARK   62  A    between atoms: _138  and  _141
REMARK   63  A    between atoms: _141  and  _142
REMARK   64  A    between atoms: _145  and  _147
REMARK   65  A    between atoms: _147  and  _148
REMARK   66  A    between atoms: _147  and  _150
REMARK   67  A    between atoms: _150  and  _151
REMARK   68  A    between atoms: _154  and  _156
REMARK   69  A    between atoms: _156  and  _157
REMARK   70  A    between atoms: _156  and  _159
REMARK   71  A    between atoms: _159  and  _160
REMARK   72  A    between atoms: _166  and  _168
REMARK   73  A    between atoms: _168  and  _169
REMARK   74  A    between atoms: _168  and  _171
REMARK   75  A    between atoms: _171  and  _172
REMARK   76  A    between atoms: _172  and  _173
REMARK   77  A    between atoms: _178  and  _180
REMARK   78  A    between atoms: _180  and  _181
REMARK   79  A    between atoms: _183  and  _185
REMARK   80  A    between atoms: _185  and  _186
REMARK   81  A    between atoms: _185  and  _188
REMARK   82  A    between atoms: _188  and  _189
REMARK   83  A    between atoms: _194  and  _195
REMARK   84  A    between atoms: _197  and  _199
REMARK   85  A    between atoms: _199  and  _200
REMARK   86  A    between atoms: _199  and  _202
REMARK   87  A    between atoms: _202  and  _203
REMARK   88  A    between atoms: _208  and  _209
REMARK   89  A    between atoms: _211  and  _213
REMARK   90  A    between atoms: _213  and  _214
REMARK   91  A    between atoms: _213  and  _216
REMARK   92  A    between atoms: _216  and  _217
REMARK   93  A    between atoms: _217  and  _218
REMARK   94  A    between atoms: _218  and  _219
REMARK   95  A    between atoms: _219  and  _220
REMARK   96  A    between atoms: _224  and  _226
REMARK   97  A    between atoms: _226  and  _227
REMARK   98  A    between atoms: _226  and  _229
REMARK   99  A    between atoms: _229  and  _230
REMARK  100  A    between atoms: _233  and  _235
REMARK  101  A    between atoms: _235  and  _236
REMARK  102  A    between atoms: _239  and  _241
REMARK  103  A    between atoms: _241  and  _242
REMARK  104  A    between atoms: _241  and  _244
REMARK  105  A    between atoms: _244  and  _245
REMARK  106  A    between atoms: _245  and  _246
REMARK  107  A    between atoms: _246  and  _247
REMARK  108  A    between atoms: _256  and  _258
REMARK  109  A    between atoms: _258  and  _259
REMARK  110  A    between atoms: _258  and  _261
REMARK  111  A    between atoms: _261  and  _262
REMARK  112  A    between atoms: _267  and  _269
REMARK  113  A    between atoms: _269  and  _270
REMARK  114  A    between atoms: _269  and  _272
REMARK  115  A    between atoms: _272  and  _273
REMARK  116  A    between atoms: _278  and  _279
REMARK  117  A    between atoms: _281  and  _283
REMARK  118  A    between atoms: _283  and  _284
REMARK  119  A    between atoms: _287  and  _289
REMARK  120  A    between atoms: _289  and  _290
REMARK  121  A    between atoms: _289  and  _292
REMARK  122  A    between atoms: _295  and  _297
REMARK  123  A    between atoms: _297  and  _298
REMARK  124  A    between atoms: _297  and  _300
REMARK  125  A    between atoms: _303  and  _305
REMARK  126  A    between atoms: _305  and  _306
REMARK  127  A    between atoms: _305  and  _308
REMARK  128  A    between atoms: _308  and  _309
REMARK  129  A    between atoms: _309  and  _310
REMARK  130  A    between atoms: _313  and  _315
REMARK  131  A    between atoms: _315  and  _316
REMARK  132  A    between atoms: _315  and  _318
REMARK  133  A    between atoms: _318  and  _319
REMARK  134  A    between atoms: _322  and  _324
REMARK  135  A    between atoms: _324  and  _325
REMARK  136  A    between atoms: _324  and  _327
REMARK  137  A    between atoms: _327  and  _328
REMARK  138  A    between atoms: _328  and  _330
REMARK  139  A    between atoms: _330  and  MN_635
REMARK  140  A    between atoms: _331  and  _333
REMARK  141  A    between atoms: _333  and  _334
REMARK  142  A    between atoms: _333  and  _336
REMARK  143  A    between atoms: _336  and  _337
REMARK  144  A    between atoms: _340  and  _342
REMARK  145  A    between atoms: _342  and  _343
REMARK  146  A    between atoms: _342  and  _345
REMARK  147  A    between atoms: _345  and  _346
REMARK  148  A    between atoms: _353  and  _354
REMARK  149  A    between atoms: _359  and  _361
REMARK  150  A    between atoms: _361  and  _362
REMARK  151  A    between atoms: _364  and  _366
REMARK  152  A    between atoms: _366  and  _367
REMARK  153  A    between atoms: _366  and  _369
REMARK  154  A    between atoms: _369  and  _370
REMARK  155  A    between atoms: _373  and  _375
REMARK  156  A    between atoms: _375  and  _376
REMARK  157  A    between atoms: _378  and  _380
REMARK  158  A    between atoms: _380  and  _381
REMARK  159  A    between atoms: _380  and  _383
REMARK  160  A    between atoms: _383  and  _384
REMARK  161  A    between atoms: _394  and  _396
REMARK  162  A    between atoms: _396  and  _397
REMARK  163  A    between atoms: _400  and  _402
REMARK  164  A    between atoms: _402  and  _403
REMARK  165  A    between atoms: _402  and  _405
REMARK  166  A    between atoms: _405  and  _406
REMARK  167  A    between atoms: _412  and  _414
REMARK  168  A    between atoms: _414  and  _415
REMARK  169  A    between atoms: _414  and  _417
REMARK  170  A    between atoms: _417  and  _418
REMARK  171  A    between atoms: _428  and  _430
REMARK  172  A    between atoms: _430  and  _431
REMARK  173  A    between atoms: _430  and  _433
REMARK  174  A    between atoms: _433  and  _434
REMARK  175  A    between atoms: _437  and  _439
REMARK  176  A    between atoms: _439  and  _440
REMARK  177  A    between atoms: _439  and  _442
REMARK  178  A    between atoms: _442  and  _443
REMARK  179  A    between atoms: _446  and  _448
REMARK  180  A    between atoms: _448  and  _449
REMARK  181  A    between atoms: _448  and  _451
REMARK  182  A    between atoms: _451  and  _452
REMARK  183  A    between atoms: _462  and  _464
REMARK  184  A    between atoms: _464  and  _465
REMARK  185  A    between atoms: _464  and  _467
REMARK  186  A    between atoms: _467  and  _468
REMARK  187  A    between atoms: _468  and  _469
REMARK  188  A    between atoms: _469  and  _470
REMARK  189  A    between atoms: _479  and  _481
REMARK  190  A    between atoms: _481  and  _482
REMARK  191  A    between atoms: _481  and  _484
REMARK  192  A    between atoms: _484  and  _485
REMARK  193  A    between atoms: _488  and  _490
REMARK  194  A    between atoms: _490  and  _491
REMARK  195  A    between atoms: _490  and  _493
REMARK  196  A    between atoms: _493  and  _494
REMARK  197  A    between atoms: _500  and  _502
REMARK  198  A    between atoms: _502  and  _503
REMARK  199  A    between atoms: _505  and  _507
REMARK  200  A    between atoms: _507  and  _508
REMARK  201  A    between atoms: _507  and  _510
REMARK  202  A    between atoms: _510  and  _511
REMARK  203  A    between atoms: _511  and  _512
REMARK  204  A    between atoms: _512  and  _513
REMARK  205  A    between atoms: _522  and  _524
REMARK  206  A    between atoms: _524  and  _525
REMARK  207  A    between atoms: _524  and  _527
REMARK  208  A    between atoms: _527  and  _528
REMARK  209  A    between atoms: _528  and  _529
REMARK  210  A    between atoms: _529  and  _530
REMARK  211  A    between atoms: _530  and  _531
REMARK  212  A    between atoms: _535  and  _537
REMARK  213  A    between atoms: _537  and  _538
REMARK  214  A    between atoms: _540  and  _542
REMARK  215  A    between atoms: _542  and  _543
REMARK  216  A    between atoms: _542  and  _545
REMARK  217  A    between atoms: _548  and  _550
REMARK  218  A    between atoms: _550  and  _551
REMARK  219  A    between atoms: _550  and  _553
REMARK  220  A    between atoms: _553  and  _554
REMARK  221  A    between atoms: _556  and  _558
REMARK  222  A    between atoms: _558  and  _559
REMARK  223  A    between atoms: _558  and  _561
REMARK  224  A    between atoms: _561  and  _562
REMARK  225  A    between atoms: _567  and  _569
REMARK  226  A    between atoms: _569  and  _570
REMARK  227  A    between atoms: _572  and  _574
REMARK  228  A    between atoms: _574  and  _575
REMARK  229  A    between atoms: _574  and  _577
REMARK  230  A    between atoms: _577  and  _578
REMARK  231  A    between atoms: _584  and  _586
REMARK  232  A    between atoms: _586  and  _587
REMARK  233  A    between atoms: _586  and  _589
REMARK  234  A    between atoms: _589  and  _590
REMARK  235  A    between atoms: _596  and  _598
REMARK  236  A    between atoms: _598  and  _599
REMARK  237  A    between atoms: _598  and  _601
REMARK  238  A    between atoms: _601  and  _602
REMARK  239  A    between atoms: _605  and  _607
REMARK  240  A    between atoms: _607  and  _608
REMARK  241  A    between atoms: _607  and  _610
REMARK  242  A    between atoms: _610  and  _611
REMARK  243  A    between atoms: _611  and  _612
REMARK  244  A    between atoms: _612  and  _613
REMARK  245  A    between atoms: _613  and  _614
REMARK  246  A    between atoms: _618  and  _620
REMARK  247  A    between atoms: _620  and  _621
REMARK  248  A    between atoms: _620  and  _623
REMARK  249  A    between atoms: _623  and  _624
REMARK  250  A    between atoms: _624  and  _625
REMARK  251  A    between atoms: _625  and  _626
REMARK                            x       y       z     vdW  Elec       q    Type
REMARK                         _______ _______ _______ _____ _____    ______ ____
ROOT
ATOM      1  O   HOH     1      10.661  23.963   7.127  0.00  0.00    +0.000 OA
ENDROOT
TORSDOF 0
REMARK  Name = ../refined-set-2016/2am4/2am4_pocket.pdb
REMARK  251 active torsions:
REMARK  status: ('A' for Active; 'I' for Inactive)
REMARK    1  A    between atoms: _1  and  _3
REMARK    2  A    between atoms: _3  and  _4
REMARK    3  A    between atoms: _3  and  _6
REMARK    4  A    between atoms: _6  and  _7
REMARK    5  A    between atoms: _10  and  _12
REMARK    6  A    between atoms: _12  and  _13
REMARK    7  A    between atoms: _12  and  _15
REMARK    8  A    between atoms: _18  and  _20
REMARK    9  A    between atoms: _20  and  _21
REMARK   10  A    between atoms: _20  and  _23
REMARK   11  A    between atoms: _23  and  _24
REMARK   12  A    between atoms: _27  and  _29
REMARK   13  A    between atoms: _29  and  _30
REMARK   14  A    between atoms: _33  and  _35
REMARK   15  A    between atoms: _35  and  _36
REMARK   16  A    between atoms: _35  and  _38
REMARK   17  A    between atoms: _38  and  _39
REMARK   18  A    between atoms: _39  and  _109
REMARK   19  A    between atoms: _40  and  _42
REMARK   20  A    between atoms: _42  and  _43
REMARK   21  A    between atoms: _42  and  _45
REMARK   22  A    between atoms: _45  and  _46
REMARK   23  A    between atoms: _49  and  _51
REMARK   24  A    between atoms: _51  and  _52
REMARK   25  A    between atoms: _51  and  _54
REMARK   26  A    between atoms: _54  and  _55
REMARK   27  A    between atoms: _55  and  _56
REMARK   28  A    between atoms: _56  and  _57
REMARK   29  A    between atoms: _66  and  _68
REMARK   30  A    between atoms: _68  and  _69
REMARK   31  A    between atoms: _68  and  _71
REMARK   32  A    between atoms: _74  and  _76
REMARK   33  A    between atoms: _76  and  _77
REMARK   34  A    between atoms: _76  and  _79
REMARK   35  A    between atoms: _79  and  _80
REMARK   36  A    between atoms: _82  and  _84
REMARK   37  A    between atoms: _84  and  _85
REMARK   38  A    between atoms: _84  and  _87
REMARK   39  A    between atoms: _87  and  _88
REMARK   40  A    between atoms: _88  and  _89
REMARK   41  A    between atoms: _94  and  _96
REMARK   42  A    between atoms: _96  and  _97
REMARK   43  A    between atoms: _96  and  _99
REMARK   44  A    between atoms: _99  and  _100
REMARK   45  A    between atoms: _103  and  _105
REMARK   46  A    between atoms: _105  and  _106
REMARK   47  A    between atoms: _105  and  _108
REMARK   48  A    between atoms: _108  and  _109
REMARK   49  A    between atoms: _110  and  _112
REMARK   50  A    between atoms: _112  and  _113
REMARK   51  A    between atoms: _115  and  _117
REMARK   52  A    between atoms: _117  and  _118
REMARK   53  A    between atoms: _117  and  _120
REMARK   54  A    between atoms: _120  and  _121
REMARK   55  A    between atoms: _124  and  _126
REMARK   56  A    between atoms: _126  and  _127
REMARK   57  A    between atoms: _126  and  _129
REMARK   58  A    between atoms: _129  and  _130
REMARK   59  A    between atoms: _130  and  _131
REMARK   60  A    between atoms: _136  and  _138
REMARK   61  A    between atoms: _138  and  _139
REMARK   62  A    between atoms: _138  and  _141
REMARK   63  A    between atoms: _141  and  _142
REMARK   64  A    between atoms: _145  and  _147
REMARK   65  A    between atoms: _147  and  _148
REMARK   66  A    between atoms: _147  and  _150
REMARK   67  A    between atoms: _150  and  _151
REMARK   68  A    between atoms: _154  and  _156
REMARK   69  A    between atoms: _156  and  _157
REMARK   70  A    between atoms: _156  and  _159
REMARK   71  A    between atoms: _159  and  _160
REMARK   72  A    between atoms: _166  and  _168
REMARK   73  A    between atoms: _168  and  _169
REMARK   74  A    between atoms: _168  and  _171
REMARK   75  A    between atoms: _171  and  _172
REMARK   76  A    between atoms: _172  and  _173
REMARK   77  A    between atoms: _178  and  _180
REMARK   78  A    between atoms: _180  and  _181
REMARK   79  A    between atoms: _183  and  _185
REMARK   80  A    between atoms: _185  and  _186
REMARK   81  A    between atoms: _185  and  _188
REMARK   82  A    between atoms: _188  and  _189
REMARK   83  A    between atoms: _194  and  _195
REMARK   84  A    between atoms: _197  and  _199
REMARK   85  A    between atoms: _199  and  _200
REMARK   86  A    between atoms: _199  and  _202
REMARK   87  A    between atoms: _202  and  _203
REMARK   88  A    between atoms: _208  and  _209
REMARK   89  A    between atoms: _211  and  _213
REMARK   90  A    between atoms: _213  and  _214
REMARK   91  A    between atoms: _213  and  _216
REMARK   92  A    between atoms: _216  and  _217
REMARK   93  A    between atoms: _217  and  _218
REMARK   94  A    between atoms: _218  and  _219
REMARK   95  A    between atoms: _219  and  _220
REMARK   96  A    between atoms: _224  and  _226
REMARK   97  A    between atoms: _226  and  _227
REMARK   98  A    between atoms: _226  and  _229
REMARK   99  A    between atoms: _229  and  _230
REMARK  100  A    between atoms: _233  and  _235
REMARK  101  A    between atoms: _235  and  _236
REMARK  102  A    between atoms: _239  and  _241
REMARK  103  A    between atoms: _241  and  _242
REMARK  104  A    between atoms: _241  and  _244
REMARK  105  A    between atoms: _244  and  _245
REMARK  106  A    between atoms: _245  and  _246
REMARK  107  A    between atoms: _246  and  _247
REMARK  108  A    between atoms: _256  and  _258
REMARK  109  A    between atoms: _258  and  _259
REMARK  110  A    between atoms: _258  and  _261
REMARK  111  A    between atoms: _261  and  _262
REMARK  112  A    between atoms: _267  and  _269
REMARK  113  A    between atoms: _269  and  _270
REMARK  114  A    between atoms: _269  and  _272
REMARK  115  A    between atoms: _272  and  _273
REMARK  116  A    between atoms: _278  and  _279
REMARK  117  A    between atoms: _281  and  _283
REMARK  118  A    between atoms: _283  and  _284
REMARK  119  A    between atoms: _287  and  _289
REMARK  120  A    between atoms: _289  and  _290
REMARK  121  A    between atoms: _289  and  _292
REMARK  122  A    between atoms: _295  and  _297
REMARK  123  A    between atoms: _297  and  _298
REMARK  124  A    between atoms: _297  and  _300
REMARK  125  A    between atoms: _303  and  _305
REMARK  126  A    between atoms: _305  and  _306
REMARK  127  A    between atoms: _305  and  _308
REMARK  128  A    between atoms: _308  and  _309
REMARK  129  A    between atoms: _309  and  _310
REMARK  130  A    between atoms: _313  and  _315
REMARK  131  A    between atoms: _315  and  _316
REMARK  132  A    between atoms: _315  and  _318
REMARK  133  A    between atoms: _318  and  _319
REMARK  134  A    between atoms: _322  and  _324
REMARK  135  A    between atoms: _324  and  _325
REMARK  136  A    between atoms: _324  and  _327
REMARK  137  A    between atoms: _327  and  _328
REMARK  138  A    between atoms: _328  and  _330
REMARK  139  A    between atoms: _330  and  MN_635
REMARK  140  A    between atoms: _331  and  _333
REMARK  141  A    between atoms: _333  and  _334
REMARK  142  A    between atoms: _333  and  _336
REMARK  143  A    between atoms: _336  and  _337
REMARK  144  A    between atoms: _340  and  _342
REMARK  145  A    between atoms: _342  and  _343
REMARK  146  A    between atoms: _342  and  _345
REMARK  147  A    between atoms: _345  and  _346
REMARK  148  A    between atoms: _353  and  _354
REMARK  149  A    between atoms: _359  and  _361
REMARK  150  A    between atoms: _361  and  _362
REMARK  151  A    between atoms: _364  and  _366
REMARK  152  A    between atoms: _366  and  _367
REMARK  153  A    between atoms: _366  and  _369
REMARK  154  A    between atoms: _369  and  _370
REMARK  155  A    between atoms: _373  and  _375
REMARK  156  A    between atoms: _375  and  _376
REMARK  157  A    between atoms: _378  and  _380
REMARK  158  A    between atoms: _380  and  _381
REMARK  159  A    between atoms: _380  and  _383
REMARK  160  A    between atoms: _383  and  _384
REMARK  161  A    between atoms: _394  and  _396
REMARK  162  A    between atoms: _396  and  _397
REMARK  163  A    between atoms: _400  and  _402
REMARK  164  A    between atoms: _402  and  _403
REMARK  165  A    between atoms: _402  and  _405
REMARK  166  A    between atoms: _405  and  _406
REMARK  167  A    between atoms: _412  and  _414
REMARK  168  A    between atoms: _414  and  _415
REMARK  169  A    between atoms: _414  and  _417
REMARK  170  A    between atoms: _417  and  _418
REMARK  171  A    between atoms: _428  and  _430
REMARK  172  A    between atoms: _430  and  _431
REMARK  173  A    between atoms: _430  and  _433
REMARK  174  A    between atoms: _433  and  _434
REMARK  175  A    between atoms: _437  and  _439
REMARK  176  A    between atoms: _439  and  _440
REMARK  177  A    between atoms: _439  and  _442
REMARK  178  A    between atoms: _442  and  _443
REMARK  179  A    between atoms: _446  and  _448
REMARK  180  A    between atoms: _448  and  _449
REMARK  181  A    between atoms: _448  and  _451
REMARK  182  A    between atoms: _451  and  _452
REMARK  183  A    between atoms: _462  and  _464
REMARK  184  A    between atoms: _464  and  _465
REMARK  185  A    between atoms: _464  and  _467
REMARK  186  A    between atoms: _467  and  _468
REMARK  187  A    between atoms: _468  and  _469
REMARK  188  A    between atoms: _469  and  _470
REMARK  189  A    between atoms: _479  and  _481
REMARK  190  A    between atoms: _481  and  _482
REMARK  191  A    between atoms: _481  and  _484
REMARK  192  A    between atoms: _484  and  _485
REMARK  193  A    between atoms: _488  and  _490
REMARK  194  A    between atoms: _490  and  _491
REMARK  195  A    between atoms: _490  and  _493
REMARK  196  A    between atoms: _493  and  _494
REMARK  197  A    between atoms: _500  and  _502
REMARK  198  A    between atoms: _502  and  _503
REMARK  199  A    between atoms: _505  and  _507
REMARK  200  A    between atoms: _507  and  _508
REMARK  201  A    between atoms: _507  and  _510
REMARK  202  A    between atoms: _510  and  _511
REMARK  203  A    between atoms: _511  and  _512
REMARK  204  A    between atoms: _512  and  _513
REMARK  205  A    between atoms: _522  and  _524
REMARK  206  A    between atoms: _524  and  _525
REMARK  207  A    between atoms: _524  and  _527
REMARK  208  A    between atoms: _527  and  _528
REMARK  209  A    between atoms: _528  and  _529
REMARK  210  A    between atoms: _529  and  _530
REMARK  211  A    between atoms: _530  and  _531
REMARK  212  A    between atoms: _535  and  _537
REMARK  213  A    between atoms: _537  and  _538
REMARK  214  A    between atoms: _540  and  _542
REMARK  215  A    between atoms: _542  and  _543
REMARK  216  A    between atoms: _542  and  _545
REMARK  217  A    between atoms: _548  and  _550
REMARK  218  A    between atoms: _550  and  _551
REMARK  219  A    between atoms: _550  and  _553
REMARK  220  A    between atoms: _553  and  _554
REMARK  221  A    between atoms: _556  and  _558
REMARK  222  A    between atoms: _558  and  _559
REMARK  223  A    between atoms: _558  and  _561
REMARK  224  A    between atoms: _561  and  _562
REMARK  225  A    between atoms: _567  and  _569
REMARK  226  A    between atoms: _569  and  _570
REMARK  227  A    between atoms: _572  and  _574
REMARK  228  A    between atoms: _574  and  _575
REMARK  229  A    between atoms: _574  and  _577
REMARK  230  A    between atoms: _577  and  _578
REMARK  231  A    between atoms: _584  and  _586
REMARK  232  A    between atoms: _586  and  _587
REMARK  233  A    between atoms: _586  and  _589
REMARK  234  A    between atoms: _589  and  _590
REMARK  235  A    between atoms: _596  and  _598
REMARK  236  A    between atoms: _598  and  _599
REMARK  237  A    between atoms: _598  and  _601
REMARK  238  A    between atoms: _601  and  _602
REMARK  239  A    between atoms: _605  and  _607
REMARK  240  A    between atoms: _607  and  _608
REMARK  241  A    between atoms: _607  and  _610
REMARK  242  A    between atoms: _610  and  _611
REMARK  243  A    between atoms: _611  and  _612
REMARK  244  A    between atoms: _612  and  _613
REMARK  245  A    between atoms: _613  and  _614
REMARK  246  A    between atoms: _618  and  _620
REMARK  247  A    between atoms: _620  and  _621
REMARK  248  A    between atoms: _620  and  _623
REMARK  249  A    between atoms: _623  and  _624
REMARK  250  A    between atoms: _624  and  _625
REMARK  251  A    between atoms: _625  and  _626
REMARK                            x       y       z     vdW  Elec       q    Type
REMARK                         _______ _______ _______ _____ _____    ______ ____
ROOT
ATOM      1  O   HOH     1       5.031  20.157  18.384  0.00  0.00    +0.000 OA
ENDROOT
TORSDOF 0
REMARK  Name = ../refined-set-2016/2am4/2am4_pocket.pdb
REMARK  251 active torsions:
REMARK  status: ('A' for Active; 'I' for Inactive)
REMARK    1  A    between atoms: _1  and  _3
REMARK    2  A    between atoms: _3  and  _4
REMARK    3  A    between atoms: _3  and  _6
REMARK    4  A    between atoms: _6  and  _7
REMARK    5  A    between atoms: _10  and  _12
REMARK    6  A    between atoms: _12  and  _13
REMARK    7  A    between atoms: _12  and  _15
REMARK    8  A    between atoms: _18  and  _20
REMARK    9  A    between atoms: _20  and  _21
REMARK   10  A    between atoms: _20  and  _23
REMARK   11  A    between atoms: _23  and  _24
REMARK   12  A    between atoms: _27  and  _29
REMARK   13  A    between atoms: _29  and  _30
REMARK   14  A    between atoms: _33  and  _35
REMARK   15  A    between atoms: _35  and  _36
REMARK   16  A    between atoms: _35  and  _38
REMARK   17  A    between atoms: _38  and  _39
REMARK   18  A    between atoms: _39  and  _109
REMARK   19  A    between atoms: _40  and  _42
REMARK   20  A    between atoms: _42  and  _43
REMARK   21  A    between atoms: _42  and  _45
REMARK   22  A    between atoms: _45  and  _46
REMARK   23  A    between atoms: _49  and  _51
REMARK   24  A    between atoms: _51  and  _52
REMARK   25  A    between atoms: _51  and  _54
REMARK   26  A    between atoms: _54  and  _55
REMARK   27  A    between atoms: _55  and  _56
REMARK   28  A    between atoms: _56  and  _57
REMARK   29  A    between atoms: _66  and  _68
REMARK   30  A    between atoms: _68  and  _69
REMARK   31  A    between atoms: _68  and  _71
REMARK   32  A    between atoms: _74  and  _76
REMARK   33  A    between atoms: _76  and  _77
REMARK   34  A    between atoms: _76  and  _79
REMARK   35  A    between atoms: _79  and  _80
REMARK   36  A    between atoms: _82  and  _84
REMARK   37  A    between atoms: _84  and  _85
REMARK   38  A    between atoms: _84  and  _87
REMARK   39  A    between atoms: _87  and  _88
REMARK   40  A    between atoms: _88  and  _89
REMARK   41  A    between atoms: _94  and  _96
REMARK   42  A    between atoms: _96  and  _97
REMARK   43  A    between atoms: _96  and  _99
REMARK   44  A    between atoms: _99  and  _100
REMARK   45  A    between atoms: _103  and  _105
REMARK   46  A    between atoms: _105  and  _106
REMARK   47  A    between atoms: _105  and  _108
REMARK   48  A    between atoms: _108  and  _109
REMARK   49  A    between atoms: _110  and  _112
REMARK   50  A    between atoms: _112  and  _113
REMARK   51  A    between atoms: _115  and  _117
REMARK   52  A    between atoms: _117  and  _118
REMARK   53  A    between atoms: _117  and  _120
REMARK   54  A    between atoms: _120  and  _121
REMARK   55  A    between atoms: _124  and  _126
REMARK   56  A    between atoms: _126  and  _127
REMARK   57  A    between atoms: _126  and  _129
REMARK   58  A    between atoms: _129  and  _130
REMARK   59  A    between atoms: _130  and  _131
REMARK   60  A    between atoms: _136  and  _138
REMARK   61  A    between atoms: _138  and  _139
REMARK   62  A    between atoms: _138  and  _141
REMARK   63  A    between atoms: _141  and  _142
REMARK   64  A    between atoms: _145  and  _147
REMARK   65  A    between atoms: _147  and  _148
REMARK   66  A    between atoms: _147  and  _150
REMARK   67  A    between atoms: _150  and  _151
REMARK   68  A    between atoms: _154  and  _156
REMARK   69  A    between atoms: _156  and  _157
REMARK   70  A    between atoms: _156  and  _159
REMARK   71  A    between atoms: _159  and  _160
REMARK   72  A    between atoms: _166  and  _168
REMARK   73  A    between atoms: _168  and  _169
REMARK   74  A    between atoms: _168  and  _171
REMARK   75  A    between atoms: _171  and  _172
REMARK   76  A    between atoms: _172  and  _173
REMARK   77  A    between atoms: _178  and  _180
REMARK   78  A    between atoms: _180  and  _181
REMARK   79  A    between atoms: _183  and  _185
REMARK   80  A    between atoms: _185  and  _186
REMARK   81  A    between atoms: _185  and  _188
REMARK   82  A    between atoms: _188  and  _189
REMARK   83  A    between atoms: _194  and  _195
REMARK   84  A    between atoms: _197  and  _199
REMARK   85  A    between atoms: _199  and  _200
REMARK   86  A    between atoms: _199  and  _202
REMARK   87  A    between atoms: _202  and  _203
REMARK   88  A    between atoms: _208  and  _209
REMARK   89  A    between atoms: _211  and  _213
REMARK   90  A    between atoms: _213  and  _214
REMARK   91  A    between atoms: _213  and  _216
REMARK   92  A    between atoms: _216  and  _217
REMARK   93  A    between atoms: _217  and  _218
REMARK   94  A    between atoms: _218  and  _219
REMARK   95  A    between atoms: _219  and  _220
REMARK   96  A    between atoms: _224  and  _226
REMARK   97  A    between atoms: _226  and  _227
REMARK   98  A    between atoms: _226  and  _229
REMARK   99  A    between atoms: _229  and  _230
REMARK  100  A    between atoms: _233  and  _235
REMARK  101  A    between atoms: _235  and  _236
REMARK  102  A    between atoms: _239  and  _241
REMARK  103  A    between atoms: _241  and  _242
REMARK  104  A    between atoms: _241  and  _244
REMARK  105  A    between atoms: _244  and  _245
REMARK  106  A    between atoms: _245  and  _246
REMARK  107  A    between atoms: _246  and  _247
REMARK  108  A    between atoms: _256  and  _258
REMARK  109  A    between atoms: _258  and  _259
REMARK  110  A    between atoms: _258  and  _261
REMARK  111  A    between atoms: _261  and  _262
REMARK  112  A    between atoms: _267  and  _269
REMARK  113  A    between atoms: _269  and  _270
REMARK  114  A    between atoms: _269  and  _272
REMARK  115  A    between atoms: _272  and  _273
REMARK  116  A    between atoms: _278  and  _279
REMARK  117  A    between atoms: _281  and  _283
REMARK  118  A    between atoms: _283  and  _284
REMARK  119  A    between atoms: _287  and  _289
REMARK  120  A    between atoms: _289  and  _290
REMARK  121  A    between atoms: _289  and  _292
REMARK  122  A    between atoms: _295  and  _297
REMARK  123  A    between atoms: _297  and  _298
REMARK  124  A    between atoms: _297  and  _300
REMARK  125  A    between atoms: _303  and  _305
REMARK  126  A    between atoms: _305  and  _306
REMARK  127  A    between atoms: _305  and  _308
REMARK  128  A    between atoms: _308  and  _309
REMARK  129  A    between atoms: _309  and  _310
REMARK  130  A    between atoms: _313  and  _315
REMARK  131  A    between atoms: _315  and  _316
REMARK  132  A    between atoms: _315  and  _318
REMARK  133  A    between atoms: _318  and  _319
REMARK  134  A    between atoms: _322  and  _324
REMARK  135  A    between atoms: _324  and  _325
REMARK  136  A    between atoms: _324  and  _327
REMARK  137  A    between atoms: _327  and  _328
REMARK  138  A    between atoms: _328  and  _330
REMARK  139  A    between atoms: _330  and  MN_635
REMARK  140  A    between atoms: _331  and  _333
REMARK  141  A    between atoms: _333  and  _334
REMARK  142  A    between atoms: _333  and  _336
REMARK  143  A    between atoms: _336  and  _337
REMARK  144  A    between atoms: _340  and  _342
REMARK  145  A    between atoms: _342  and  _343
REMARK  146  A    between atoms: _342  and  _345
REMARK  147  A    between atoms: _345  and  _346
REMARK  148  A    between atoms: _353  and  _354
REMARK  149  A    between atoms: _359  and  _361
REMARK  150  A    between atoms: _361  and  _362
REMARK  151  A    between atoms: _364  and  _366
REMARK  152  A    between atoms: _366  and  _367
REMARK  153  A    between atoms: _366  and  _369
REMARK  154  A    between atoms: _369  and  _370
REMARK  155  A    between atoms: _373  and  _375
REMARK  156  A    between atoms: _375  and  _376
REMARK  157  A    between atoms: _378  and  _380
REMARK  158  A    between atoms: _380  and  _381
REMARK  159  A    between atoms: _380  and  _383
REMARK  160  A    between atoms: _383  and  _384
REMARK  161  A    between atoms: _394  and  _396
REMARK  162  A    between atoms: _396  and  _397
REMARK  163  A    between atoms: _400  and  _402
REMARK  164  A    between atoms: _402  and  _403
REMARK  165  A    between atoms: _402  and  _405
REMARK  166  A    between atoms: _405  and  _406
REMARK  167  A    between atoms: _412  and  _414
REMARK  168  A    between atoms: _414  and  _415
REMARK  169  A    between atoms: _414  and  _417
REMARK  170  A    between atoms: _417  and  _418
REMARK  171  A    between atoms: _428  and  _430
REMARK  172  A    between atoms: _430  and  _431
REMARK  173  A    between atoms: _430  and  _433
REMARK  174  A    between atoms: _433  and  _434
REMARK  175  A    between atoms: _437  and  _439
REMARK  176  A    between atoms: _439  and  _440
REMARK  177  A    between atoms: _439  and  _442
REMARK  178  A    between atoms: _442  and  _443
REMARK  179  A    between atoms: _446  and  _448
REMARK  180  A    between atoms: _448  and  _449
REMARK  181  A    between atoms: _448  and  _451
REMARK  182  A    between atoms: _451  and  _452
REMARK  183  A    between atoms: _462  and  _464
REMARK  184  A    between atoms: _464  and  _465
REMARK  185  A    between atoms: _464  and  _467
REMARK  186  A    between atoms: _467  and  _468
REMARK  187  A    between atoms: _468  and  _469
REMARK  188  A    between atoms: _469  and  _470
REMARK  189  A    between atoms: _479  and  _481
REMARK  190  A    between atoms: _481  and  _482
REMARK  191  A    between atoms: _481  and  _484
REMARK  192  A    between atoms: _484  and  _485
REMARK  193  A    between atoms: _488  and  _490
REMARK  194  A    between atoms: _490  and  _491
REMARK  195  A    between atoms: _490  and  _493
REMARK  196  A    between atoms: _493  and  _494
REMARK  197  A    between atoms: _500  and  _502
REMARK  198  A    between atoms: _502  and  _503
REMARK  199  A    between atoms: _505  and  _507
REMARK  200  A    between atoms: _507  and  _508
REMARK  201  A    between atoms: _507  and  _510
REMARK  202  A    between atoms: _510  and  _511
REMARK  203  A    between atoms: _511  and  _512
REMARK  204  A    between atoms: _512  and  _513
REMARK  205  A    between atoms: _522  and  _524
REMARK  206  A    between atoms: _524  and  _525
REMARK  207  A    between atoms: _524  and  _527
REMARK  208  A    between atoms: _527  and  _528
REMARK  209  A    between atoms: _528  and  _529
REMARK  210  A    between atoms: _529  and  _530
REMARK  211  A    between atoms: _530  and  _531
REMARK  212  A    between atoms: _535  and  _537
REMARK  213  A    between atoms: _537  and  _538
REMARK  214  A    between atoms: _540  and  _542
REMARK  215  A    between atoms: _542  and  _543
REMARK  216  A    between atoms: _542  and  _545
REMARK  217  A    between atoms: _548  and  _550
REMARK  218  A    between atoms: _550  and  _551
REMARK  219  A    between atoms: _550  and  _553
REMARK  220  A    between atoms: _553  and  _554
REMARK  221  A    between atoms: _556  and  _558
REMARK  222  A    between atoms: _558  and  _559
REMARK  223  A    between atoms: _558  and  _561
REMARK  224  A    between atoms: _561  and  _562
REMARK  225  A    between atoms: _567  and  _569
REMARK  226  A    between atoms: _569  and  _570
REMARK  227  A    between atoms: _572  and  _574
REMARK  228  A    between atoms: _574  and  _575
REMARK  229  A    between atoms: _574  and  _577
REMARK  230  A    between atoms: _577  and  _578
REMARK  231  A    between atoms: _584  and  _586
REMARK  232  A    between atoms: _586  and  _587
REMARK  233  A    between atoms: _586  and  _589
REMARK  234  A    between atoms: _589  and  _590
REMARK  235  A    between atoms: _596  and  _598
REMARK  236  A    between atoms: _598  and  _599
REMARK  237  A    between atoms: _598  and  _601
REMARK  238  A    between atoms: _601  and  _602
REMARK  239  A    between atoms: _605  and  _607
REMARK  240  A    between atoms: _607  and  _608
REMARK  241  A    between atoms: _607  and  _610
REMARK  242  A    between atoms: _610  and  _611
REMARK  243  A    between atoms: _611  and  _612
REMARK  244  A    between atoms: _612  and  _613
REMARK  245  A    between atoms: _613  and  _614
REMARK  246  A    between atoms: _618  and  _620
REMARK  247  A    between atoms: _620  and  _621
REMARK  248  A    between atoms: _620  and  _623
REMARK  249  A    between atoms: _623  and  _624
REMARK  250  A    between atoms: _624  and  _625
REMARK  251  A    between atoms: _625  and  _626
REMARK                            x       y       z     vdW  Elec       q    Type
REMARK                         _______ _______ _______ _____ _____    ______ ____
ROOT
ATOM      1  O   HOH     1      10.672  23.060  16.326  0.00  0.00    +0.000 OA
ENDROOT
TORSDOF 0
REMARK  Name = ../refined-set-2016/2am4/2am4_pocket.pdb
REMARK  251 active torsions:
REMARK  status: ('A' for Active; 'I' for Inactive)
REMARK    1  A    between atoms: _1  and  _3
REMARK    2  A    between atoms: _3  and  _4
REMARK    3  A    between atoms: _3  and  _6
REMARK    4  A    between atoms: _6  and  _7
REMARK    5  A    between atoms: _10  and  _12
REMARK    6  A    between atoms: _12  and  _13
REMARK    7  A    between atoms: _12  and  _15
REMARK    8  A    between atoms: _18  and  _20
REMARK    9  A    between atoms: _20  and  _21
REMARK   10  A    between atoms: _20  and  _23
REMARK   11  A    between atoms: _23  and  _24
REMARK   12  A    between atoms: _27  and  _29
REMARK   13  A    between atoms: _29  and  _30
REMARK   14  A    between atoms: _33  and  _35
REMARK   15  A    between atoms: _35  and  _36
REMARK   16  A    between atoms: _35  and  _38
REMARK   17  A    between atoms: _38  and  _39
REMARK   18  A    between atoms: _39  and  _109
REMARK   19  A    between atoms: _40  and  _42
REMARK   20  A    between atoms: _42  and  _43
REMARK   21  A    between atoms: _42  and  _45
REMARK   22  A    between atoms: _45  and  _46
REMARK   23  A    between atoms: _49  and  _51
REMARK   24  A    between atoms: _51  and  _52
REMARK   25  A    between atoms: _51  and  _54
REMARK   26  A    between atoms: _54  and  _55
REMARK   27  A    between atoms: _55  and  _56
REMARK   28  A    between atoms: _56  and  _57
REMARK   29  A    between atoms: _66  and  _68
REMARK   30  A    between atoms: _68  and  _69
REMARK   31  A    between atoms: _68  and  _71
REMARK   32  A    between atoms: _74  and  _76
REMARK   33  A    between atoms: _76  and  _77
REMARK   34  A    between atoms: _76  and  _79
REMARK   35  A    between atoms: _79  and  _80
REMARK   36  A    between atoms: _82  and  _84
REMARK   37  A    between atoms: _84  and  _85
REMARK   38  A    between atoms: _84  and  _87
REMARK   39  A    between atoms: _87  and  _88
REMARK   40  A    between atoms: _88  and  _89
REMARK   41  A    between atoms: _94  and  _96
REMARK   42  A    between atoms: _96  and  _97
REMARK   43  A    between atoms: _96  and  _99
REMARK   44  A    between atoms: _99  and  _100
REMARK   45  A    between atoms: _103  and  _105
REMARK   46  A    between atoms: _105  and  _106
REMARK   47  A    between atoms: _105  and  _108
REMARK   48  A    between atoms: _108  and  _109
REMARK   49  A    between atoms: _110  and  _112
REMARK   50  A    between atoms: _112  and  _113
REMARK   51  A    between atoms: _115  and  _117
REMARK   52  A    between atoms: _117  and  _118
REMARK   53  A    between atoms: _117  and  _120
REMARK   54  A    between atoms: _120  and  _121
REMARK   55  A    between atoms: _124  and  _126
REMARK   56  A    between atoms: _126  and  _127
REMARK   57  A    between atoms: _126  and  _129
REMARK   58  A    between atoms: _129  and  _130
REMARK   59  A    between atoms: _130  and  _131
REMARK   60  A    between atoms: _136  and  _138
REMARK   61  A    between atoms: _138  and  _139
REMARK   62  A    between atoms: _138  and  _141
REMARK   63  A    between atoms: _141  and  _142
REMARK   64  A    between atoms: _145  and  _147
REMARK   65  A    between atoms: _147  and  _148
REMARK   66  A    between atoms: _147  and  _150
REMARK   67  A    between atoms: _150  and  _151
REMARK   68  A    between atoms: _154  and  _156
REMARK   69  A    between atoms: _156  and  _157
REMARK   70  A    between atoms: _156  and  _159
REMARK   71  A    between atoms: _159  and  _160
REMARK   72  A    between atoms: _166  and  _168
REMARK   73  A    between atoms: _168  and  _169
REMARK   74  A    between atoms: _168  and  _171
REMARK   75  A    between atoms: _171  and  _172
REMARK   76  A    between atoms: _172  and  _173
REMARK   77  A    between atoms: _178  and  _180
REMARK   78  A    between atoms: _180  and  _181
REMARK   79  A    between atoms: _183  and  _185
REMARK   80  A    between atoms: _185  and  _186
REMARK   81  A    between atoms: _185  and  _188
REMARK   82  A    between atoms: _188  and  _189
REMARK   83  A    between atoms: _194  and  _195
REMARK   84  A    between atoms: _197  and  _199
REMARK   85  A    between atoms: _199  and  _200
REMARK   86  A    between atoms: _199  and  _202
REMARK   87  A    between atoms: _202  and  _203
REMARK   88  A    between atoms: _208  and  _209
REMARK   89  A    between atoms: _211  and  _213
REMARK   90  A    between atoms: _213  and  _214
REMARK   91  A    between atoms: _213  and  _216
REMARK   92  A    between atoms: _216  and  _217
REMARK   93  A    between atoms: _217  and  _218
REMARK   94  A    between atoms: _218  and  _219
REMARK   95  A    between atoms: _219  and  _220
REMARK   96  A    between atoms: _224  and  _226
REMARK   97  A    between atoms: _226  and  _227
REMARK   98  A    between atoms: _226  and  _229
REMARK   99  A    between atoms: _229  and  _230
REMARK  100  A    between atoms: _233  and  _235
REMARK  101  A    between atoms: _235  and  _236
REMARK  102  A    between atoms: _239  and  _241
REMARK  103  A    between atoms: _241  and  _242
REMARK  104  A    between atoms: _241  and  _244
REMARK  105  A    between atoms: _244  and  _245
REMARK  106  A    between atoms: _245  and  _246
REMARK  107  A    between atoms: _246  and  _247
REMARK  108  A    between atoms: _256  and  _258
REMARK  109  A    between atoms: _258  and  _259
REMARK  110  A    between atoms: _258  and  _261
REMARK  111  A    between atoms: _261  and  _262
REMARK  112  A    between atoms: _267  and  _269
REMARK  113  A    between atoms: _269  and  _270
REMARK  114  A    between atoms: _269  and  _272
REMARK  115  A    between atoms: _272  and  _273
REMARK  116  A    between atoms: _278  and  _279
REMARK  117  A    between atoms: _281  and  _283
REMARK  118  A    between atoms: _283  and  _284
REMARK  119  A    between atoms: _287  and  _289
REMARK  120  A    between atoms: _289  and  _290
REMARK  121  A    between atoms: _289  and  _292
REMARK  122  A    between atoms: _295  and  _297
REMARK  123  A    between atoms: _297  and  _298
REMARK  124  A    between atoms: _297  and  _300
REMARK  125  A    between atoms: _303  and  _305
REMARK  126  A    between atoms: _305  and  _306
REMARK  127  A    between atoms: _305  and  _308
REMARK  128  A    between atoms: _308  and  _309
REMARK  129  A    between atoms: _309  and  _310
REMARK  130  A    between atoms: _313  and  _315
REMARK  131  A    between atoms: _315  and  _316
REMARK  132  A    between atoms: _315  and  _318
REMARK  133  A    between atoms: _318  and  _319
REMARK  134  A    between atoms: _322  and  _324
REMARK  135  A    between atoms: _324  and  _325
REMARK  136  A    between atoms: _324  and  _327
REMARK  137  A    between atoms: _327  and  _328
REMARK  138  A    between atoms: _328  and  _330
REMARK  139  A    between atoms: _330  and  MN_635
REMARK  140  A    between atoms: _331  and  _333
REMARK  141  A    between atoms: _333  and  _334
REMARK  142  A    between atoms: _333  and  _336
REMARK  143  A    between atoms: _336  and  _337
REMARK  144  A    between atoms: _340  and  _342
REMARK  145  A    between atoms: _342  and  _343
REMARK  146  A    between atoms: _342  and  _345
REMARK  147  A    between atoms: _345  and  _346
REMARK  148  A    between atoms: _353  and  _354
REMARK  149  A    between atoms: _359  and  _361
REMARK  150  A    between atoms: _361  and  _362
REMARK  151  A    between atoms: _364  and  _366
REMARK  152  A    between atoms: _366  and  _367
REMARK  153  A    between atoms: _366  and  _369
REMARK  154  A    between atoms: _369  and  _370
REMARK  155  A    between atoms: _373  and  _375
REMARK  156  A    between atoms: _375  and  _376
REMARK  157  A    between atoms: _378  and  _380
REMARK  158  A    between atoms: _380  and  _381
REMARK  159  A    between atoms: _380  and  _383
REMARK  160  A    between atoms: _383  and  _384
REMARK  161  A    between atoms: _394  and  _396
REMARK  162  A    between atoms: _396  and  _397
REMARK  163  A    between atoms: _400  and  _402
REMARK  164  A    between atoms: _402  and  _403
REMARK  165  A    between atoms: _402  and  _405
REMARK  166  A    between atoms: _405  and  _406
REMARK  167  A    between atoms: _412  and  _414
REMARK  168  A    between atoms: _414  and  _415
REMARK  169  A    between atoms: _414  and  _417
REMARK  170  A    between atoms: _417  and  _418
REMARK  171  A    between atoms: _428  and  _430
REMARK  172  A    between atoms: _430  and  _431
REMARK  173  A    between atoms: _430  and  _433
REMARK  174  A    between atoms: _433  and  _434
REMARK  175  A    between atoms: _437  and  _439
REMARK  176  A    between atoms: _439  and  _440
REMARK  177  A    between atoms: _439  and  _442
REMARK  178  A    between atoms: _442  and  _443
REMARK  179  A    between atoms: _446  and  _448
REMARK  180  A    between atoms: _448  and  _449
REMARK  181  A    between atoms: _448  and  _451
REMARK  182  A    between atoms: _451  and  _452
REMARK  183  A    between atoms: _462  and  _464
REMARK  184  A    between atoms: _464  and  _465
REMARK  185  A    between atoms: _464  and  _467
REMARK  186  A    between atoms: _467  and  _468
REMARK  187  A    between atoms: _468  and  _469
REMARK  188  A    between atoms: _469  and  _470
REMARK  189  A    between atoms: _479  and  _481
REMARK  190  A    between atoms: _481  and  _482
REMARK  191  A    between atoms: _481  and  _484
REMARK  192  A    between atoms: _484  and  _485
REMARK  193  A    between atoms: _488  and  _490
REMARK  194  A    between atoms: _490  and  _491
REMARK  195  A    between atoms: _490  and  _493
REMARK  196  A    between atoms: _493  and  _494
REMARK  197  A    between atoms: _500  and  _502
REMARK  198  A    between atoms: _502  and  _503
REMARK  199  A    between atoms: _505  and  _507
REMARK  200  A    between atoms: _507  and  _508
REMARK  201  A    between atoms: _507  and  _510
REMARK  202  A    between atoms: _510  and  _511
REMARK  203  A    between atoms: _511  and  _512
REMARK  204  A    between atoms: _512  and  _513
REMARK  205  A    between atoms: _522  and  _524
REMARK  206  A    between atoms: _524  and  _525
REMARK  207  A    between atoms: _524  and  _527
REMARK  208  A    between atoms: _527  and  _528
REMARK  209  A    between atoms: _528  and  _529
REMARK  210  A    between atoms: _529  and  _530
REMARK  211  A    between atoms: _530  and  _531
REMARK  212  A    between atoms: _535  and  _537
REMARK  213  A    between atoms: _537  and  _538
REMARK  214  A    between atoms: _540  and  _542
REMARK  215  A    between atoms: _542  and  _543
REMARK  216  A    between atoms: _542  and  _545
REMARK  217  A    between atoms: _548  and  _550
REMARK  218  A    between atoms: _550  and  _551
REMARK  219  A    between atoms: _550  and  _553
REMARK  220  A    between atoms: _553  and  _554
REMARK  221  A    between atoms: _556  and  _558
REMARK  222  A    between atoms: _558  and  _559
REMARK  223  A    between atoms: _558  and  _561
REMARK  224  A    between atoms: _561  and  _562
REMARK  225  A    between atoms: _567  and  _569
REMARK  226  A    between atoms: _569  and  _570
REMARK  227  A    between atoms: _572  and  _574
REMARK  228  A    between atoms: _574  and  _575
REMARK  229  A    between atoms: _574  and  _577
REMARK  230  A    between atoms: _577  and  _578
REMARK  231  A    between atoms: _584  and  _586
REMARK  232  A    between atoms: _586  and  _587
REMARK  233  A    between atoms: _586  and  _589
REMARK  234  A    between atoms: _589  and  _590
REMARK  235  A    between atoms: _596  and  _598
REMARK  236  A    between atoms: _598  and  _599
REMARK  237  A    between atoms: _598  and  _601
REMARK  238  A    between atoms: _601  and  _602
REMARK  239  A    between atoms: _605  and  _607
REMARK  240  A    between atoms: _607  and  _608
REMARK  241  A    between atoms: _607  and  _610
REMARK  242  A    between atoms: _610  and  _611
REMARK  243  A    between atoms: _611  and  _612
REMARK  244  A    between atoms: _612  and  _613
REMARK  245  A    between atoms: _613  and  _614
REMARK  246  A    between atoms: _618  and  _620
REMARK  247  A    between atoms: _620  and  _621
REMARK  248  A    between atoms: _620  and  _623
REMARK  249  A    between atoms: _623  and  _624
REMARK  250  A    between atoms: _624  and  _625
REMARK  251  A    between atoms: _625  and  _626
REMARK                            x       y       z     vdW  Elec       q    Type
REMARK                         _______ _______ _______ _____ _____    ______ ____
ROOT
ATOM      1  O   HOH     1       2.945  23.819  18.411  0.00  0.00    +0.000 OA
ENDROOT
TORSDOF 0
REMARK  Name = ../refined-set-2016/2am4/2am4_pocket.pdb
REMARK  251 active torsions:
REMARK  status: ('A' for Active; 'I' for Inactive)
REMARK    1  A    between atoms: _1  and  _3
REMARK    2  A    between atoms: _3  and  _4
REMARK    3  A    between atoms: _3  and  _6
REMARK    4  A    between atoms: _6  and  _7
REMARK    5  A    between atoms: _10  and  _12
REMARK    6  A    between atoms: _12  and  _13
REMARK    7  A    between atoms: _12  and  _15
REMARK    8  A    between atoms: _18  and  _20
REMARK    9  A    between atoms: _20  and  _21
REMARK   10  A    between atoms: _20  and  _23
REMARK   11  A    between atoms: _23  and  _24
REMARK   12  A    between atoms: _27  and  _29
REMARK   13  A    between atoms: _29  and  _30
REMARK   14  A    between atoms: _33  and  _35
REMARK   15  A    between atoms: _35  and  _36
REMARK   16  A    between atoms: _35  and  _38
REMARK   17  A    between atoms: _38  and  _39
REMARK   18  A    between atoms: _39  and  _109
REMARK   19  A    between atoms: _40  and  _42
REMARK   20  A    between atoms: _42  and  _43
REMARK   21  A    between atoms: _42  and  _45
REMARK   22  A    between atoms: _45  and  _46
REMARK   23  A    between atoms: _49  and  _51
REMARK   24  A    between atoms: _51  and  _52
REMARK   25  A    between atoms: _51  and  _54
REMARK   26  A    between atoms: _54  and  _55
REMARK   27  A    between atoms: _55  and  _56
REMARK   28  A    between atoms: _56  and  _57
REMARK   29  A    between atoms: _66  and  _68
REMARK   30  A    between atoms: _68  and  _69
REMARK   31  A    between atoms: _68  and  _71
REMARK   32  A    between atoms: _74  and  _76
REMARK   33  A    between atoms: _76  and  _77
REMARK   34  A    between atoms: _76  and  _79
REMARK   35  A    between atoms: _79  and  _80
REMARK   36  A    between atoms: _82  and  _84
REMARK   37  A    between atoms: _84  and  _85
REMARK   38  A    between atoms: _84  and  _87
REMARK   39  A    between atoms: _87  and  _88
REMARK   40  A    between atoms: _88  and  _89
REMARK   41  A    between atoms: _94  and  _96
REMARK   42  A    between atoms: _96  and  _97
REMARK   43  A    between atoms: _96  and  _99
REMARK   44  A    between atoms: _99  and  _100
REMARK   45  A    between atoms: _103  and  _105
REMARK   46  A    between atoms: _105  and  _106
REMARK   47  A    between atoms: _105  and  _108
REMARK   48  A    between atoms: _108  and  _109
REMARK   49  A    between atoms: _110  and  _112
REMARK   50  A    between atoms: _112  and  _113
REMARK   51  A    between atoms: _115  and  _117
REMARK   52  A    between atoms: _117  and  _118
REMARK   53  A    between atoms: _117  and  _120
REMARK   54  A    between atoms: _120  and  _121
REMARK   55  A    between atoms: _124  and  _126
REMARK   56  A    between atoms: _126  and  _127
REMARK   57  A    between atoms: _126  and  _129
REMARK   58  A    between atoms: _129  and  _130
REMARK   59  A    between atoms: _130  and  _131
REMARK   60  A    between atoms: _136  and  _138
REMARK   61  A    between atoms: _138  and  _139
REMARK   62  A    between atoms: _138  and  _141
REMARK   63  A    between atoms: _141  and  _142
REMARK   64  A    between atoms: _145  and  _147
REMARK   65  A    between atoms: _147  and  _148
REMARK   66  A    between atoms: _147  and  _150
REMARK   67  A    between atoms: _150  and  _151
REMARK   68  A    between atoms: _154  and  _156
REMARK   69  A    between atoms: _156  and  _157
REMARK   70  A    between atoms: _156  and  _159
REMARK   71  A    between atoms: _159  and  _160
REMARK   72  A    between atoms: _166  and  _168
REMARK   73  A    between atoms: _168  and  _169
REMARK   74  A    between atoms: _168  and  _171
REMARK   75  A    between atoms: _171  and  _172
REMARK   76  A    between atoms: _172  and  _173
REMARK   77  A    between atoms: _178  and  _180
REMARK   78  A    between atoms: _180  and  _181
REMARK   79  A    between atoms: _183  and  _185
REMARK   80  A    between atoms: _185  and  _186
REMARK   81  A    between atoms: _185  and  _188
REMARK   82  A    between atoms: _188  and  _189
REMARK   83  A    between atoms: _194  and  _195
REMARK   84  A    between atoms: _197  and  _199
REMARK   85  A    between atoms: _199  and  _200
REMARK   86  A    between atoms: _199  and  _202
REMARK   87  A    between atoms: _202  and  _203
REMARK   88  A    between atoms: _208  and  _209
REMARK   89  A    between atoms: _211  and  _213
REMARK   90  A    between atoms: _213  and  _214
REMARK   91  A    between atoms: _213  and  _216
REMARK   92  A    between atoms: _216  and  _217
REMARK   93  A    between atoms: _217  and  _218
REMARK   94  A    between atoms: _218  and  _219
REMARK   95  A    between atoms: _219  and  _220
REMARK   96  A    between atoms: _224  and  _226
REMARK   97  A    between atoms: _226  and  _227
REMARK   98  A    between atoms: _226  and  _229
REMARK   99  A    between atoms: _229  and  _230
REMARK  100  A    between atoms: _233  and  _235
REMARK  101  A    between atoms: _235  and  _236
REMARK  102  A    between atoms: _239  and  _241
REMARK  103  A    between atoms: _241  and  _242
REMARK  104  A    between atoms: _241  and  _244
REMARK  105  A    between atoms: _244  and  _245
REMARK  106  A    between atoms: _245  and  _246
REMARK  107  A    between atoms: _246  and  _247
REMARK  108  A    between atoms: _256  and  _258
REMARK  109  A    between atoms: _258  and  _259
REMARK  110  A    between atoms: _258  and  _261
REMARK  111  A    between atoms: _261  and  _262
REMARK  112  A    between atoms: _267  and  _269
REMARK  113  A    between atoms: _269  and  _270
REMARK  114  A    between atoms: _269  and  _272
REMARK  115  A    between atoms: _272  and  _273
REMARK  116  A    between atoms: _278  and  _279
REMARK  117  A    between atoms: _281  and  _283
REMARK  118  A    between atoms: _283  and  _284
REMARK  119  A    between atoms: _287  and  _289
REMARK  120  A    between atoms: _289  and  _290
REMARK  121  A    between atoms: _289  and  _292
REMARK  122  A    between atoms: _295  and  _297
REMARK  123  A    between atoms: _297  and  _298
REMARK  124  A    between atoms: _297  and  _300
REMARK  125  A    between atoms: _303  and  _305
REMARK  126  A    between atoms: _305  and  _306
REMARK  127  A    between atoms: _305  and  _308
REMARK  128  A    between atoms: _308  and  _309
REMARK  129  A    between atoms: _309  and  _310
REMARK  130  A    between atoms: _313  and  _315
REMARK  131  A    between atoms: _315  and  _316
REMARK  132  A    between atoms: _315  and  _318
REMARK  133  A    between atoms: _318  and  _319
REMARK  134  A    between atoms: _322  and  _324
REMARK  135  A    between atoms: _324  and  _325
REMARK  136  A    between atoms: _324  and  _327
REMARK  137  A    between atoms: _327  and  _328
REMARK  138  A    between atoms: _328  and  _330
REMARK  139  A    between atoms: _330  and  MN_635
REMARK  140  A    between atoms: _331  and  _333
REMARK  141  A    between atoms: _333  and  _334
REMARK  142  A    between atoms: _333  and  _336
REMARK  143  A    between atoms: _336  and  _337
REMARK  144  A    between atoms: _340  and  _342
REMARK  145  A    between atoms: _342  and  _343
REMARK  146  A    between atoms: _342  and  _345
REMARK  147  A    between atoms: _345  and  _346
REMARK  148  A    between atoms: _353  and  _354
REMARK  149  A    between atoms: _359  and  _361
REMARK  150  A    between atoms: _361  and  _362
REMARK  151  A    between atoms: _364  and  _366
REMARK  152  A    between atoms: _366  and  _367
REMARK  153  A    between atoms: _366  and  _369
REMARK  154  A    between atoms: _369  and  _370
REMARK  155  A    between atoms: _373  and  _375
REMARK  156  A    between atoms: _375  and  _376
REMARK  157  A    between atoms: _378  and  _380
REMARK  158  A    between atoms: _380  and  _381
REMARK  159  A    between atoms: _380  and  _383
REMARK  160  A    between atoms: _383  and  _384
REMARK  161  A    between atoms: _394  and  _396
REMARK  162  A    between atoms: _396  and  _397
REMARK  163  A    between atoms: _400  and  _402
REMARK  164  A    between atoms: _402  and  _403
REMARK  165  A    between atoms: _402  and  _405
REMARK  166  A    between atoms: _405  and  _406
REMARK  167  A    between atoms: _412  and  _414
REMARK  168  A    between atoms: _414  and  _415
REMARK  169  A    between atoms: _414  and  _417
REMARK  170  A    between atoms: _417  and  _418
REMARK  171  A    between atoms: _428  and  _430
REMARK  172  A    between atoms: _430  and  _431
REMARK  173  A    between atoms: _430  and  _433
REMARK  174  A    between atoms: _433  and  _434
REMARK  175  A    between atoms: _437  and  _439
REMARK  176  A    between atoms: _439  and  _440
REMARK  177  A    between atoms: _439  and  _442
REMARK  178  A    between atoms: _442  and  _443
REMARK  179  A    between atoms: _446  and  _448
REMARK  180  A    between atoms: _448  and  _449
REMARK  181  A    between atoms: _448  and  _451
REMARK  182  A    between atoms: _451  and  _452
REMARK  183  A    between atoms: _462  and  _464
REMARK  184  A    between atoms: _464  and  _465
REMARK  185  A    between atoms: _464  and  _467
REMARK  186  A    between atoms: _467  and  _468
REMARK  187  A    between atoms: _468  and  _469
REMARK  188  A    between atoms: _469  and  _470
REMARK  189  A    between atoms: _479  and  _481
REMARK  190  A    between atoms: _481  and  _482
REMARK  191  A    between atoms: _481  and  _484
REMARK  192  A    between atoms: _484  and  _485
REMARK  193  A    between atoms: _488  and  _490
REMARK  194  A    between atoms: _490  and  _491
REMARK  195  A    between atoms: _490  and  _493
REMARK  196  A    between atoms: _493  and  _494
REMARK  197  A    between atoms: _500  and  _502
REMARK  198  A    between atoms: _502  and  _503
REMARK  199  A    between atoms: _505  and  _507
REMARK  200  A    between atoms: _507  and  _508
REMARK  201  A    between atoms: _507  and  _510
REMARK  202  A    between atoms: _510  and  _511
REMARK  203  A    between atoms: _511  and  _512
REMARK  204  A    between atoms: _512  and  _513
REMARK  205  A    between atoms: _522  and  _524
REMARK  206  A    between atoms: _524  and  _525
REMARK  207  A    between atoms: _524  and  _527
REMARK  208  A    between atoms: _527  and  _528
REMARK  209  A    between atoms: _528  and  _529
REMARK  210  A    between atoms: _529  and  _530
REMARK  211  A    between atoms: _530  and  _531
REMARK  212  A    between atoms: _535  and  _537
REMARK  213  A    between atoms: _537  and  _538
REMARK  214  A    between atoms: _540  and  _542
REMARK  215  A    between atoms: _542  and  _543
REMARK  216  A    between atoms: _542  and  _545
REMARK  217  A    between atoms: _548  and  _550
REMARK  218  A    between atoms: _550  and  _551
REMARK  219  A    between atoms: _550  and  _553
REMARK  220  A    between atoms: _553  and  _554
REMARK  221  A    between atoms: _556  and  _558
REMARK  222  A    between atoms: _558  and  _559
REMARK  223  A    between atoms: _558  and  _561
REMARK  224  A    between atoms: _561  and  _562
REMARK  225  A    between atoms: _567  and  _569
REMARK  226  A    between atoms: _569  and  _570
REMARK  227  A    between atoms: _572  and  _574
REMARK  228  A    between atoms: _574  and  _575
REMARK  229  A    between atoms: _574  and  _577
REMARK  230  A    between atoms: _577  and  _578
REMARK  231  A    between atoms: _584  and  _586
REMARK  232  A    between atoms: _586  and  _587
REMARK  233  A    between atoms: _586  and  _589
REMARK  234  A    between atoms: _589  and  _590
REMARK  235  A    between atoms: _596  and  _598
REMARK  236  A    between atoms: _598  and  _599
REMARK  237  A    between atoms: _598  and  _601
REMARK  238  A    between atoms: _601  and  _602
REMARK  239  A    between atoms: _605  and  _607
REMARK  240  A    between atoms: _607  and  _608
REMARK  241  A    between atoms: _607  and  _610
REMARK  242  A    between atoms: _610  and  _611
REMARK  243  A    between atoms: _611  and  _612
REMARK  244  A    between atoms: _612  and  _613
REMARK  245  A    between atoms: _613  and  _614
REMARK  246  A    between atoms: _618  and  _620
REMARK  247  A    between atoms: _620  and  _621
REMARK  248  A    between atoms: _620  and  _623
REMARK  249  A    between atoms: _623  and  _624
REMARK  250  A    between atoms: _624  and  _625
REMARK  251  A    between atoms: _625  and  _626
REMARK                            x       y       z     vdW  Elec       q    Type
REMARK                         _______ _______ _______ _____ _____    ______ ____
ROOT
ATOM      1  O   HOH     1       5.941  23.018  21.819  0.00  0.00    +0.000 OA
ENDROOT
TORSDOF 0
REMARK  Name = ../refined-set-2016/2am4/2am4_pocket.pdb
REMARK  251 active torsions:
REMARK  status: ('A' for Active; 'I' for Inactive)
REMARK    1  A    between atoms: _1  and  _3
REMARK    2  A    between atoms: _3  and  _4
REMARK    3  A    between atoms: _3  and  _6
REMARK    4  A    between atoms: _6  and  _7
REMARK    5  A    between atoms: _10  and  _12
REMARK    6  A    between atoms: _12  and  _13
REMARK    7  A    between atoms: _12  and  _15
REMARK    8  A    between atoms: _18  and  _20
REMARK    9  A    between atoms: _20  and  _21
REMARK   10  A    between atoms: _20  and  _23
REMARK   11  A    between atoms: _23  and  _24
REMARK   12  A    between atoms: _27  and  _29
REMARK   13  A    between atoms: _29  and  _30
REMARK   14  A    between atoms: _33  and  _35
REMARK   15  A    between atoms: _35  and  _36
REMARK   16  A    between atoms: _35  and  _38
REMARK   17  A    between atoms: _38  and  _39
REMARK   18  A    between atoms: _39  and  _109
REMARK   19  A    between atoms: _40  and  _42
REMARK   20  A    between atoms: _42  and  _43
REMARK   21  A    between atoms: _42  and  _45
REMARK   22  A    between atoms: _45  and  _46
REMARK   23  A    between atoms: _49  and  _51
REMARK   24  A    between atoms: _51  and  _52
REMARK   25  A    between atoms: _51  and  _54
REMARK   26  A    between atoms: _54  and  _55
REMARK   27  A    between atoms: _55  and  _56
REMARK   28  A    between atoms: _56  and  _57
REMARK   29  A    between atoms: _66  and  _68
REMARK   30  A    between atoms: _68  and  _69
REMARK   31  A    between atoms: _68  and  _71
REMARK   32  A    between atoms: _74  and  _76
REMARK   33  A    between atoms: _76  and  _77
REMARK   34  A    between atoms: _76  and  _79
REMARK   35  A    between atoms: _79  and  _80
REMARK   36  A    between atoms: _82  and  _84
REMARK   37  A    between atoms: _84  and  _85
REMARK   38  A    between atoms: _84  and  _87
REMARK   39  A    between atoms: _87  and  _88
REMARK   40  A    between atoms: _88  and  _89
REMARK   41  A    between atoms: _94  and  _96
REMARK   42  A    between atoms: _96  and  _97
REMARK   43  A    between atoms: _96  and  _99
REMARK   44  A    between atoms: _99  and  _100
REMARK   45  A    between atoms: _103  and  _105
REMARK   46  A    between atoms: _105  and  _106
REMARK   47  A    between atoms: _105  and  _108
REMARK   48  A    between atoms: _108  and  _109
REMARK   49  A    between atoms: _110  and  _112
REMARK   50  A    between atoms: _112  and  _113
REMARK   51  A    between atoms: _115  and  _117
REMARK   52  A    between atoms: _117  and  _118
REMARK   53  A    between atoms: _117  and  _120
REMARK   54  A    between atoms: _120  and  _121
REMARK   55  A    between atoms: _124  and  _126
REMARK   56  A    between atoms: _126  and  _127
REMARK   57  A    between atoms: _126  and  _129
REMARK   58  A    between atoms: _129  and  _130
REMARK   59  A    between atoms: _130  and  _131
REMARK   60  A    between atoms: _136  and  _138
REMARK   61  A    between atoms: _138  and  _139
REMARK   62  A    between atoms: _138  and  _141
REMARK   63  A    between atoms: _141  and  _142
REMARK   64  A    between atoms: _145  and  _147
REMARK   65  A    between atoms: _147  and  _148
REMARK   66  A    between atoms: _147  and  _150
REMARK   67  A    between atoms: _150  and  _151
REMARK   68  A    between atoms: _154  and  _156
REMARK   69  A    between atoms: _156  and  _157
REMARK   70  A    between atoms: _156  and  _159
REMARK   71  A    between atoms: _159  and  _160
REMARK   72  A    between atoms: _166  and  _168
REMARK   73  A    between atoms: _168  and  _169
REMARK   74  A    between atoms: _168  and  _171
REMARK   75  A    between atoms: _171  and  _172
REMARK   76  A    between atoms: _172  and  _173
REMARK   77  A    between atoms: _178  and  _180
REMARK   78  A    between atoms: _180  and  _181
REMARK   79  A    between atoms: _183  and  _185
REMARK   80  A    between atoms: _185  and  _186
REMARK   81  A    between atoms: _185  and  _188
REMARK   82  A    between atoms: _188  and  _189
REMARK   83  A    between atoms: _194  and  _195
REMARK   84  A    between atoms: _197  and  _199
REMARK   85  A    between atoms: _199  and  _200
REMARK   86  A    between atoms: _199  and  _202
REMARK   87  A    between atoms: _202  and  _203
REMARK   88  A    between atoms: _208  and  _209
REMARK   89  A    between atoms: _211  and  _213
REMARK   90  A    between atoms: _213  and  _214
REMARK   91  A    between atoms: _213  and  _216
REMARK   92  A    between atoms: _216  and  _217
REMARK   93  A    between atoms: _217  and  _218
REMARK   94  A    between atoms: _218  and  _219
REMARK   95  A    between atoms: _219  and  _220
REMARK   96  A    between atoms: _224  and  _226
REMARK   97  A    between atoms: _226  and  _227
REMARK   98  A    between atoms: _226  and  _229
REMARK   99  A    between atoms: _229  and  _230
REMARK  100  A    between atoms: _233  and  _235
REMARK  101  A    between atoms: _235  and  _236
REMARK  102  A    between atoms: _239  and  _241
REMARK  103  A    between atoms: _241  and  _242
REMARK  104  A    between atoms: _241  and  _244
REMARK  105  A    between atoms: _244  and  _245
REMARK  106  A    between atoms: _245  and  _246
REMARK  107  A    between atoms: _246  and  _247
REMARK  108  A    between atoms: _256  and  _258
REMARK  109  A    between atoms: _258  and  _259
REMARK  110  A    between atoms: _258  and  _261
REMARK  111  A    between atoms: _261  and  _262
REMARK  112  A    between atoms: _267  and  _269
REMARK  113  A    between atoms: _269  and  _270
REMARK  114  A    between atoms: _269  and  _272
REMARK  115  A    between atoms: _272  and  _273
REMARK  116  A    between atoms: _278  and  _279
REMARK  117  A    between atoms: _281  and  _283
REMARK  118  A    between atoms: _283  and  _284
REMARK  119  A    between atoms: _287  and  _289
REMARK  120  A    between atoms: _289  and  _290
REMARK  121  A    between atoms: _289  and  _292
REMARK  122  A    between atoms: _295  and  _297
REMARK  123  A    between atoms: _297  and  _298
REMARK  124  A    between atoms: _297  and  _300
REMARK  125  A    between atoms: _303  and  _305
REMARK  126  A    between atoms: _305  and  _306
REMARK  127  A    between atoms: _305  and  _308
REMARK  128  A    between atoms: _308  and  _309
REMARK  129  A    between atoms: _309  and  _310
REMARK  130  A    between atoms: _313  and  _315
REMARK  131  A    between atoms: _315  and  _316
REMARK  132  A    between atoms: _315  and  _318
REMARK  133  A    between atoms: _318  and  _319
REMARK  134  A    between atoms: _322  and  _324
REMARK  135  A    between atoms: _324  and  _325
REMARK  136  A    between atoms: _324  and  _327
REMARK  137  A    between atoms: _327  and  _328
REMARK  138  A    between atoms: _328  and  _330
REMARK  139  A    between atoms: _330  and  MN_635
REMARK  140  A    between atoms: _331  and  _333
REMARK  141  A    between atoms: _333  and  _334
REMARK  142  A    between atoms: _333  and  _336
REMARK  143  A    between atoms: _336  and  _337
REMARK  144  A    between atoms: _340  and  _342
REMARK  145  A    between atoms: _342  and  _343
REMARK  146  A    between atoms: _342  and  _345
REMARK  147  A    between atoms: _345  and  _346
REMARK  148  A    between atoms: _353  and  _354
REMARK  149  A    between atoms: _359  and  _361
REMARK  150  A    between atoms: _361  and  _362
REMARK  151  A    between atoms: _364  and  _366
REMARK  152  A    between atoms: _366  and  _367
REMARK  153  A    between atoms: _366  and  _369
REMARK  154  A    between atoms: _369  and  _370
REMARK  155  A    between atoms: _373  and  _375
REMARK  156  A    between atoms: _375  and  _376
REMARK  157  A    between atoms: _378  and  _380
REMARK  158  A    between atoms: _380  and  _381
REMARK  159  A    between atoms: _380  and  _383
REMARK  160  A    between atoms: _383  and  _384
REMARK  161  A    between atoms: _394  and  _396
REMARK  162  A    between atoms: _396  and  _397
REMARK  163  A    between atoms: _400  and  _402
REMARK  164  A    between atoms: _402  and  _403
REMARK  165  A    between atoms: _402  and  _405
REMARK  166  A    between atoms: _405  and  _406
REMARK  167  A    between atoms: _412  and  _414
REMARK  168  A    between atoms: _414  and  _415
REMARK  169  A    between atoms: _414  and  _417
REMARK  170  A    between atoms: _417  and  _418
REMARK  171  A    between atoms: _428  and  _430
REMARK  172  A    between atoms: _430  and  _431
REMARK  173  A    between atoms: _430  and  _433
REMARK  174  A    between atoms: _433  and  _434
REMARK  175  A    between atoms: _437  and  _439
REMARK  176  A    between atoms: _439  and  _440
REMARK  177  A    between atoms: _439  and  _442
REMARK  178  A    between atoms: _442  and  _443
REMARK  179  A    between atoms: _446  and  _448
REMARK  180  A    between atoms: _448  and  _449
REMARK  181  A    between atoms: _448  and  _451
REMARK  182  A    between atoms: _451  and  _452
REMARK  183  A    between atoms: _462  and  _464
REMARK  184  A    between atoms: _464  and  _465
REMARK  185  A    between atoms: _464  and  _467
REMARK  186  A    between atoms: _467  and  _468
REMARK  187  A    between atoms: _468  and  _469
REMARK  188  A    between atoms: _469  and  _470
REMARK  189  A    between atoms: _479  and  _481
REMARK  190  A    between atoms: _481  and  _482
REMARK  191  A    between atoms: _481  and  _484
REMARK  192  A    between atoms: _484  and  _485
REMARK  193  A    between atoms: _488  and  _490
REMARK  194  A    between atoms: _490  and  _491
REMARK  195  A    between atoms: _490  and  _493
REMARK  196  A    between atoms: _493  and  _494
REMARK  197  A    between atoms: _500  and  _502
REMARK  198  A    between atoms: _502  and  _503
REMARK  199  A    between atoms: _505  and  _507
REMARK  200  A    between atoms: _507  and  _508
REMARK  201  A    between atoms: _507  and  _510
REMARK  202  A    between atoms: _510  and  _511
REMARK  203  A    between atoms: _511  and  _512
REMARK  204  A    between atoms: _512  and  _513
REMARK  205  A    between atoms: _522  and  _524
REMARK  206  A    between atoms: _524  and  _525
REMARK  207  A    between atoms: _524  and  _527
REMARK  208  A    between atoms: _527  and  _528
REMARK  209  A    between atoms: _528  and  _529
REMARK  210  A    between atoms: _529  and  _530
REMARK  211  A    between atoms: _530  and  _531
REMARK  212  A    between atoms: _535  and  _537
REMARK  213  A    between atoms: _537  and  _538
REMARK  214  A    between atoms: _540  and  _542
REMARK  215  A    between atoms: _542  and  _543
REMARK  216  A    between atoms: _542  and  _545
REMARK  217  A    between atoms: _548  and  _550
REMARK  218  A    between atoms: _550  and  _551
REMARK  219  A    between atoms: _550  and  _553
REMARK  220  A    between atoms: _553  and  _554
REMARK  221  A    between atoms: _556  and  _558
REMARK  222  A    between atoms: _558  and  _559
REMARK  223  A    between atoms: _558  and  _561
REMARK  224  A    between atoms: _561  and  _562
REMARK  225  A    between atoms: _567  and  _569
REMARK  226  A    between atoms: _569  and  _570
REMARK  227  A    between atoms: _572  and  _574
REMARK  228  A    between atoms: _574  and  _575
REMARK  229  A    between atoms: _574  and  _577
REMARK  230  A    between atoms: _577  and  _578
REMARK  231  A    between atoms: _584  and  _586
REMARK  232  A    between atoms: _586  and  _587
REMARK  233  A    between atoms: _586  and  _589
REMARK  234  A    between atoms: _589  and  _590
REMARK  235  A    between atoms: _596  and  _598
REMARK  236  A    between atoms: _598  and  _599
REMARK  237  A    between atoms: _598  and  _601
REMARK  238  A    between atoms: _601  and  _602
REMARK  239  A    between atoms: _605  and  _607
REMARK  240  A    between atoms: _607  and  _608
REMARK  241  A    between atoms: _607  and  _610
REMARK  242  A    between atoms: _610  and  _611
REMARK  243  A    between atoms: _611  and  _612
REMARK  244  A    between atoms: _612  and  _613
REMARK  245  A    between atoms: _613  and  _614
REMARK  246  A    between atoms: _618  and  _620
REMARK  247  A    between atoms: _620  and  _621
REMARK  248  A    between atoms: _620  and  _623
REMARK  249  A    between atoms: _623  and  _624
REMARK  250  A    between atoms: _624  and  _625
REMARK  251  A    between atoms: _625  and  _626
REMARK                            x       y       z     vdW  Elec       q    Type
REMARK                         _______ _______ _______ _____ _____    ______ ____
ROOT
ATOM      1  O   HOH     1       5.639  26.676   8.203  0.00  0.00    +0.000 OA
ENDROOT
TORSDOF 0
REMARK  Name = ../refined-set-2016/2am4/2am4_pocket.pdb
REMARK  251 active torsions:
REMARK  status: ('A' for Active; 'I' for Inactive)
REMARK    1  A    between atoms: _1  and  _3
REMARK    2  A    between atoms: _3  and  _4
REMARK    3  A    between atoms: _3  and  _6
REMARK    4  A    between atoms: _6  and  _7
REMARK    5  A    between atoms: _10  and  _12
REMARK    6  A    between atoms: _12  and  _13
REMARK    7  A    between atoms: _12  and  _15
REMARK    8  A    between atoms: _18  and  _20
REMARK    9  A    between atoms: _20  and  _21
REMARK   10  A    between atoms: _20  and  _23
REMARK   11  A    between atoms: _23  and  _24
REMARK   12  A    between atoms: _27  and  _29
REMARK   13  A    between atoms: _29  and  _30
REMARK   14  A    between atoms: _33  and  _35
REMARK   15  A    between atoms: _35  and  _36
REMARK   16  A    between atoms: _35  and  _38
REMARK   17  A    between atoms: _38  and  _39
REMARK   18  A    between atoms: _39  and  _109
REMARK   19  A    between atoms: _40  and  _42
REMARK   20  A    between atoms: _42  and  _43
REMARK   21  A    between atoms: _42  and  _45
REMARK   22  A    between atoms: _45  and  _46
REMARK   23  A    between atoms: _49  and  _51
REMARK   24  A    between atoms: _51  and  _52
REMARK   25  A    between atoms: _51  and  _54
REMARK   26  A    between atoms: _54  and  _55
REMARK   27  A    between atoms: _55  and  _56
REMARK   28  A    between atoms: _56  and  _57
REMARK   29  A    between atoms: _66  and  _68
REMARK   30  A    between atoms: _68  and  _69
REMARK   31  A    between atoms: _68  and  _71
REMARK   32  A    between atoms: _74  and  _76
REMARK   33  A    between atoms: _76  and  _77
REMARK   34  A    between atoms: _76  and  _79
REMARK   35  A    between atoms: _79  and  _80
REMARK   36  A    between atoms: _82  and  _84
REMARK   37  A    between atoms: _84  and  _85
REMARK   38  A    between atoms: _84  and  _87
REMARK   39  A    between atoms: _87  and  _88
REMARK   40  A    between atoms: _88  and  _89
REMARK   41  A    between atoms: _94  and  _96
REMARK   42  A    between atoms: _96  and  _97
REMARK   43  A    between atoms: _96  and  _99
REMARK   44  A    between atoms: _99  and  _100
REMARK   45  A    between atoms: _103  and  _105
REMARK   46  A    between atoms: _105  and  _106
REMARK   47  A    between atoms: _105  and  _108
REMARK   48  A    between atoms: _108  and  _109
REMARK   49  A    between atoms: _110  and  _112
REMARK   50  A    between atoms: _112  and  _113
REMARK   51  A    between atoms: _115  and  _117
REMARK   52  A    between atoms: _117  and  _118
REMARK   53  A    between atoms: _117  and  _120
REMARK   54  A    between atoms: _120  and  _121
REMARK   55  A    between atoms: _124  and  _126
REMARK   56  A    between atoms: _126  and  _127
REMARK   57  A    between atoms: _126  and  _129
REMARK   58  A    between atoms: _129  and  _130
REMARK   59  A    between atoms: _130  and  _131
REMARK   60  A    between atoms: _136  and  _138
REMARK   61  A    between atoms: _138  and  _139
REMARK   62  A    between atoms: _138  and  _141
REMARK   63  A    between atoms: _141  and  _142
REMARK   64  A    between atoms: _145  and  _147
REMARK   65  A    between atoms: _147  and  _148
REMARK   66  A    between atoms: _147  and  _150
REMARK   67  A    between atoms: _150  and  _151
REMARK   68  A    between atoms: _154  and  _156
REMARK   69  A    between atoms: _156  and  _157
REMARK   70  A    between atoms: _156  and  _159
REMARK   71  A    between atoms: _159  and  _160
REMARK   72  A    between atoms: _166  and  _168
REMARK   73  A    between atoms: _168  and  _169
REMARK   74  A    between atoms: _168  and  _171
REMARK   75  A    between atoms: _171  and  _172
REMARK   76  A    between atoms: _172  and  _173
REMARK   77  A    between atoms: _178  and  _180
REMARK   78  A    between atoms: _180  and  _181
REMARK   79  A    between atoms: _183  and  _185
REMARK   80  A    between atoms: _185  and  _186
REMARK   81  A    between atoms: _185  and  _188
REMARK   82  A    between atoms: _188  and  _189
REMARK   83  A    between atoms: _194  and  _195
REMARK   84  A    between atoms: _197  and  _199
REMARK   85  A    between atoms: _199  and  _200
REMARK   86  A    between atoms: _199  and  _202
REMARK   87  A    between atoms: _202  and  _203
REMARK   88  A    between atoms: _208  and  _209
REMARK   89  A    between atoms: _211  and  _213
REMARK   90  A    between atoms: _213  and  _214
REMARK   91  A    between atoms: _213  and  _216
REMARK   92  A    between atoms: _216  and  _217
REMARK   93  A    between atoms: _217  and  _218
REMARK   94  A    between atoms: _218  and  _219
REMARK   95  A    between atoms: _219  and  _220
REMARK   96  A    between atoms: _224  and  _226
REMARK   97  A    between atoms: _226  and  _227
REMARK   98  A    between atoms: _226  and  _229
REMARK   99  A    between atoms: _229  and  _230
REMARK  100  A    between atoms: _233  and  _235
REMARK  101  A    between atoms: _235  and  _236
REMARK  102  A    between atoms: _239  and  _241
REMARK  103  A    between atoms: _241  and  _242
REMARK  104  A    between atoms: _241  and  _244
REMARK  105  A    between atoms: _244  and  _245
REMARK  106  A    between atoms: _245  and  _246
REMARK  107  A    between atoms: _246  and  _247
REMARK  108  A    between atoms: _256  and  _258
REMARK  109  A    between atoms: _258  and  _259
REMARK  110  A    between atoms: _258  and  _261
REMARK  111  A    between atoms: _261  and  _262
REMARK  112  A    between atoms: _267  and  _269
REMARK  113  A    between atoms: _269  and  _270
REMARK  114  A    between atoms: _269  and  _272
REMARK  115  A    between atoms: _272  and  _273
REMARK  116  A    between atoms: _278  and  _279
REMARK  117  A    between atoms: _281  and  _283
REMARK  118  A    between atoms: _283  and  _284
REMARK  119  A    between atoms: _287  and  _289
REMARK  120  A    between atoms: _289  and  _290
REMARK  121  A    between atoms: _289  and  _292
REMARK  122  A    between atoms: _295  and  _297
REMARK  123  A    between atoms: _297  and  _298
REMARK  124  A    between atoms: _297  and  _300
REMARK  125  A    between atoms: _303  and  _305
REMARK  126  A    between atoms: _305  and  _306
REMARK  127  A    between atoms: _305  and  _308
REMARK  128  A    between atoms: _308  and  _309
REMARK  129  A    between atoms: _309  and  _310
REMARK  130  A    between atoms: _313  and  _315
REMARK  131  A    between atoms: _315  and  _316
REMARK  132  A    between atoms: _315  and  _318
REMARK  133  A    between atoms: _318  and  _319
REMARK  134  A    between atoms: _322  and  _324
REMARK  135  A    between atoms: _324  and  _325
REMARK  136  A    between atoms: _324  and  _327
REMARK  137  A    between atoms: _327  and  _328
REMARK  138  A    between atoms: _328  and  _330
REMARK  139  A    between atoms: _330  and  MN_635
REMARK  140  A    between atoms: _331  and  _333
REMARK  141  A    between atoms: _333  and  _334
REMARK  142  A    between atoms: _333  and  _336
REMARK  143  A    between atoms: _336  and  _337
REMARK  144  A    between atoms: _340  and  _342
REMARK  145  A    between atoms: _342  and  _343
REMARK  146  A    between atoms: _342  and  _345
REMARK  147  A    between atoms: _345  and  _346
REMARK  148  A    between atoms: _353  and  _354
REMARK  149  A    between atoms: _359  and  _361
REMARK  150  A    between atoms: _361  and  _362
REMARK  151  A    between atoms: _364  and  _366
REMARK  152  A    between atoms: _366  and  _367
REMARK  153  A    between atoms: _366  and  _369
REMARK  154  A    between atoms: _369  and  _370
REMARK  155  A    between atoms: _373  and  _375
REMARK  156  A    between atoms: _375  and  _376
REMARK  157  A    between atoms: _378  and  _380
REMARK  158  A    between atoms: _380  and  _381
REMARK  159  A    between atoms: _380  and  _383
REMARK  160  A    between atoms: _383  and  _384
REMARK  161  A    between atoms: _394  and  _396
REMARK  162  A    between atoms: _396  and  _397
REMARK  163  A    between atoms: _400  and  _402
REMARK  164  A    between atoms: _402  and  _403
REMARK  165  A    between atoms: _402  and  _405
REMARK  166  A    between atoms: _405  and  _406
REMARK  167  A    between atoms: _412  and  _414
REMARK  168  A    between atoms: _414  and  _415
REMARK  169  A    between atoms: _414  and  _417
REMARK  170  A    between atoms: _417  and  _418
REMARK  171  A    between atoms: _428  and  _430
REMARK  172  A    between atoms: _430  and  _431
REMARK  173  A    between atoms: _430  and  _433
REMARK  174  A    between atoms: _433  and  _434
REMARK  175  A    between atoms: _437  and  _439
REMARK  176  A    between atoms: _439  and  _440
REMARK  177  A    between atoms: _439  and  _442
REMARK  178  A    between atoms: _442  and  _443
REMARK  179  A    between atoms: _446  and  _448
REMARK  180  A    between atoms: _448  and  _449
REMARK  181  A    between atoms: _448  and  _451
REMARK  182  A    between atoms: _451  and  _452
REMARK  183  A    between atoms: _462  and  _464
REMARK  184  A    between atoms: _464  and  _465
REMARK  185  A    between atoms: _464  and  _467
REMARK  186  A    between atoms: _467  and  _468
REMARK  187  A    between atoms: _468  and  _469
REMARK  188  A    between atoms: _469  and  _470
REMARK  189  A    between atoms: _479  and  _481
REMARK  190  A    between atoms: _481  and  _482
REMARK  191  A    between atoms: _481  and  _484
REMARK  192  A    between atoms: _484  and  _485
REMARK  193  A    between atoms: _488  and  _490
REMARK  194  A    between atoms: _490  and  _491
REMARK  195  A    between atoms: _490  and  _493
REMARK  196  A    between atoms: _493  and  _494
REMARK  197  A    between atoms: _500  and  _502
REMARK  198  A    between atoms: _502  and  _503
REMARK  199  A    between atoms: _505  and  _507
REMARK  200  A    between atoms: _507  and  _508
REMARK  201  A    between atoms: _507  and  _510
REMARK  202  A    between atoms: _510  and  _511
REMARK  203  A    between atoms: _511  and  _512
REMARK  204  A    between atoms: _512  and  _513
REMARK  205  A    between atoms: _522  and  _524
REMARK  206  A    between atoms: _524  and  _525
REMARK  207  A    between atoms: _524  and  _527
REMARK  208  A    between atoms: _527  and  _528
REMARK  209  A    between atoms: _528  and  _529
REMARK  210  A    between atoms: _529  and  _530
REMARK  211  A    between atoms: _530  and  _531
REMARK  212  A    between atoms: _535  and  _537
REMARK  213  A    between atoms: _537  and  _538
REMARK  214  A    between atoms: _540  and  _542
REMARK  215  A    between atoms: _542  and  _543
REMARK  216  A    between atoms: _542  and  _545
REMARK  217  A    between atoms: _548  and  _550
REMARK  218  A    between atoms: _550  and  _551
REMARK  219  A    between atoms: _550  and  _553
REMARK  220  A    between atoms: _553  and  _554
REMARK  221  A    between atoms: _556  and  _558
REMARK  222  A    between atoms: _558  and  _559
REMARK  223  A    between atoms: _558  and  _561
REMARK  224  A    between atoms: _561  and  _562
REMARK  225  A    between atoms: _567  and  _569
REMARK  226  A    between atoms: _569  and  _570
REMARK  227  A    between atoms: _572  and  _574
REMARK  228  A    between atoms: _574  and  _575
REMARK  229  A    between atoms: _574  and  _577
REMARK  230  A    between atoms: _577  and  _578
REMARK  231  A    between atoms: _584  and  _586
REMARK  232  A    between atoms: _586  and  _587
REMARK  233  A    between atoms: _586  and  _589
REMARK  234  A    between atoms: _589  and  _590
REMARK  235  A    between atoms: _596  and  _598
REMARK  236  A    between atoms: _598  and  _599
REMARK  237  A    between atoms: _598  and  _601
REMARK  238  A    between atoms: _601  and  _602
REMARK  239  A    between atoms: _605  and  _607
REMARK  240  A    between atoms: _607  and  _608
REMARK  241  A    between atoms: _607  and  _610
REMARK  242  A    between atoms: _610  and  _611
REMARK  243  A    between atoms: _611  and  _612
REMARK  244  A    between atoms: _612  and  _613
REMARK  245  A    between atoms: _613  and  _614
REMARK  246  A    between atoms: _618  and  _620
REMARK  247  A    between atoms: _620  and  _621
REMARK  248  A    between atoms: _620  and  _623
REMARK  249  A    between atoms: _623  and  _624
REMARK  250  A    between atoms: _624  and  _625
REMARK  251  A    between atoms: _625  and  _626
REMARK                            x       y       z     vdW  Elec       q    Type
REMARK                         _______ _______ _______ _____ _____    ______ ____
ROOT
ATOM      1  O   HOH     1       2.523  24.520  -1.087  0.00  0.00    +0.000 OA
ENDROOT
TORSDOF 0
REMARK  Name = ../refined-set-2016/2am4/2am4_pocket.pdb
REMARK  251 active torsions:
REMARK  status: ('A' for Active; 'I' for Inactive)
REMARK    1  A    between atoms: _1  and  _3
REMARK    2  A    between atoms: _3  and  _4
REMARK    3  A    between atoms: _3  and  _6
REMARK    4  A    between atoms: _6  and  _7
REMARK    5  A    between atoms: _10  and  _12
REMARK    6  A    between atoms: _12  and  _13
REMARK    7  A    between atoms: _12  and  _15
REMARK    8  A    between atoms: _18  and  _20
REMARK    9  A    between atoms: _20  and  _21
REMARK   10  A    between atoms: _20  and  _23
REMARK   11  A    between atoms: _23  and  _24
REMARK   12  A    between atoms: _27  and  _29
REMARK   13  A    between atoms: _29  and  _30
REMARK   14  A    between atoms: _33  and  _35
REMARK   15  A    between atoms: _35  and  _36
REMARK   16  A    between atoms: _35  and  _38
REMARK   17  A    between atoms: _38  and  _39
REMARK   18  A    between atoms: _39  and  _109
REMARK   19  A    between atoms: _40  and  _42
REMARK   20  A    between atoms: _42  and  _43
REMARK   21  A    between atoms: _42  and  _45
REMARK   22  A    between atoms: _45  and  _46
REMARK   23  A    between atoms: _49  and  _51
REMARK   24  A    between atoms: _51  and  _52
REMARK   25  A    between atoms: _51  and  _54
REMARK   26  A    between atoms: _54  and  _55
REMARK   27  A    between atoms: _55  and  _56
REMARK   28  A    between atoms: _56  and  _57
REMARK   29  A    between atoms: _66  and  _68
REMARK   30  A    between atoms: _68  and  _69
REMARK   31  A    between atoms: _68  and  _71
REMARK   32  A    between atoms: _74  and  _76
REMARK   33  A    between atoms: _76  and  _77
REMARK   34  A    between atoms: _76  and  _79
REMARK   35  A    between atoms: _79  and  _80
REMARK   36  A    between atoms: _82  and  _84
REMARK   37  A    between atoms: _84  and  _85
REMARK   38  A    between atoms: _84  and  _87
REMARK   39  A    between atoms: _87  and  _88
REMARK   40  A    between atoms: _88  and  _89
REMARK   41  A    between atoms: _94  and  _96
REMARK   42  A    between atoms: _96  and  _97
REMARK   43  A    between atoms: _96  and  _99
REMARK   44  A    between atoms: _99  and  _100
REMARK   45  A    between atoms: _103  and  _105
REMARK   46  A    between atoms: _105  and  _106
REMARK   47  A    between atoms: _105  and  _108
REMARK   48  A    between atoms: _108  and  _109
REMARK   49  A    between atoms: _110  and  _112
REMARK   50  A    between atoms: _112  and  _113
REMARK   51  A    between atoms: _115  and  _117
REMARK   52  A    between atoms: _117  and  _118
REMARK   53  A    between atoms: _117  and  _120
REMARK   54  A    between atoms: _120  and  _121
REMARK   55  A    between atoms: _124  and  _126
REMARK   56  A    between atoms: _126  and  _127
REMARK   57  A    between atoms: _126  and  _129
REMARK   58  A    between atoms: _129  and  _130
REMARK   59  A    between atoms: _130  and  _131
REMARK   60  A    between atoms: _136  and  _138
REMARK   61  A    between atoms: _138  and  _139
REMARK   62  A    between atoms: _138  and  _141
REMARK   63  A    between atoms: _141  and  _142
REMARK   64  A    between atoms: _145  and  _147
REMARK   65  A    between atoms: _147  and  _148
REMARK   66  A    between atoms: _147  and  _150
REMARK   67  A    between atoms: _150  and  _151
REMARK   68  A    between atoms: _154  and  _156
REMARK   69  A    between atoms: _156  and  _157
REMARK   70  A    between atoms: _156  and  _159
REMARK   71  A    between atoms: _159  and  _160
REMARK   72  A    between atoms: _166  and  _168
REMARK   73  A    between atoms: _168  and  _169
REMARK   74  A    between atoms: _168  and  _171
REMARK   75  A    between atoms: _171  and  _172
REMARK   76  A    between atoms: _172  and  _173
REMARK   77  A    between atoms: _178  and  _180
REMARK   78  A    between atoms: _180  and  _181
REMARK   79  A    between atoms: _183  and  _185
REMARK   80  A    between atoms: _185  and  _186
REMARK   81  A    between atoms: _185  and  _188
REMARK   82  A    between atoms: _188  and  _189
REMARK   83  A    between atoms: _194  and  _195
REMARK   84  A    between atoms: _197  and  _199
REMARK   85  A    between atoms: _199  and  _200
REMARK   86  A    between atoms: _199  and  _202
REMARK   87  A    between atoms: _202  and  _203
REMARK   88  A    between atoms: _208  and  _209
REMARK   89  A    between atoms: _211  and  _213
REMARK   90  A    between atoms: _213  and  _214
REMARK   91  A    between atoms: _213  and  _216
REMARK   92  A    between atoms: _216  and  _217
REMARK   93  A    between atoms: _217  and  _218
REMARK   94  A    between atoms: _218  and  _219
REMARK   95  A    between atoms: _219  and  _220
REMARK   96  A    between atoms: _224  and  _226
REMARK   97  A    between atoms: _226  and  _227
REMARK   98  A    between atoms: _226  and  _229
REMARK   99  A    between atoms: _229  and  _230
REMARK  100  A    between atoms: _233  and  _235
REMARK  101  A    between atoms: _235  and  _236
REMARK  102  A    between atoms: _239  and  _241
REMARK  103  A    between atoms: _241  and  _242
REMARK  104  A    between atoms: _241  and  _244
REMARK  105  A    between atoms: _244  and  _245
REMARK  106  A    between atoms: _245  and  _246
REMARK  107  A    between atoms: _246  and  _247
REMARK  108  A    between atoms: _256  and  _258
REMARK  109  A    between atoms: _258  and  _259
REMARK  110  A    between atoms: _258  and  _261
REMARK  111  A    between atoms: _261  and  _262
REMARK  112  A    between atoms: _267  and  _269
REMARK  113  A    between atoms: _269  and  _270
REMARK  114  A    between atoms: _269  and  _272
REMARK  115  A    between atoms: _272  and  _273
REMARK  116  A    between atoms: _278  and  _279
REMARK  117  A    between atoms: _281  and  _283
REMARK  118  A    between atoms: _283  and  _284
REMARK  119  A    between atoms: _287  and  _289
REMARK  120  A    between atoms: _289  and  _290
REMARK  121  A    between atoms: _289  and  _292
REMARK  122  A    between atoms: _295  and  _297
REMARK  123  A    between atoms: _297  and  _298
REMARK  124  A    between atoms: _297  and  _300
REMARK  125  A    between atoms: _303  and  _305
REMARK  126  A    between atoms: _305  and  _306
REMARK  127  A    between atoms: _305  and  _308
REMARK  128  A    between atoms: _308  and  _309
REMARK  129  A    between atoms: _309  and  _310
REMARK  130  A    between atoms: _313  and  _315
REMARK  131  A    between atoms: _315  and  _316
REMARK  132  A    between atoms: _315  and  _318
REMARK  133  A    between atoms: _318  and  _319
REMARK  134  A    between atoms: _322  and  _324
REMARK  135  A    between atoms: _324  and  _325
REMARK  136  A    between atoms: _324  and  _327
REMARK  137  A    between atoms: _327  and  _328
REMARK  138  A    between atoms: _328  and  _330
REMARK  139  A    between atoms: _330  and  MN_635
REMARK  140  A    between atoms: _331  and  _333
REMARK  141  A    between atoms: _333  and  _334
REMARK  142  A    between atoms: _333  and  _336
REMARK  143  A    between atoms: _336  and  _337
REMARK  144  A    between atoms: _340  and  _342
REMARK  145  A    between atoms: _342  and  _343
REMARK  146  A    between atoms: _342  and  _345
REMARK  147  A    between atoms: _345  and  _346
REMARK  148  A    between atoms: _353  and  _354
REMARK  149  A    between atoms: _359  and  _361
REMARK  150  A    between atoms: _361  and  _362
REMARK  151  A    between atoms: _364  and  _366
REMARK  152  A    between atoms: _366  and  _367
REMARK  153  A    between atoms: _366  and  _369
REMARK  154  A    between atoms: _369  and  _370
REMARK  155  A    between atoms: _373  and  _375
REMARK  156  A    between atoms: _375  and  _376
REMARK  157  A    between atoms: _378  and  _380
REMARK  158  A    between atoms: _380  and  _381
REMARK  159  A    between atoms: _380  and  _383
REMARK  160  A    between atoms: _383  and  _384
REMARK  161  A    between atoms: _394  and  _396
REMARK  162  A    between atoms: _396  and  _397
REMARK  163  A    between atoms: _400  and  _402
REMARK  164  A    between atoms: _402  and  _403
REMARK  165  A    between atoms: _402  and  _405
REMARK  166  A    between atoms: _405  and  _406
REMARK  167  A    between atoms: _412  and  _414
REMARK  168  A    between atoms: _414  and  _415
REMARK  169  A    between atoms: _414  and  _417
REMARK  170  A    between atoms: _417  and  _418
REMARK  171  A    between atoms: _428  and  _430
REMARK  172  A    between atoms: _430  and  _431
REMARK  173  A    between atoms: _430  and  _433
REMARK  174  A    between atoms: _433  and  _434
REMARK  175  A    between atoms: _437  and  _439
REMARK  176  A    between atoms: _439  and  _440
REMARK  177  A    between atoms: _439  and  _442
REMARK  178  A    between atoms: _442  and  _443
REMARK  179  A    between atoms: _446  and  _448
REMARK  180  A    between atoms: _448  and  _449
REMARK  181  A    between atoms: _448  and  _451
REMARK  182  A    between atoms: _451  and  _452
REMARK  183  A    between atoms: _462  and  _464
REMARK  184  A    between atoms: _464  and  _465
REMARK  185  A    between atoms: _464  and  _467
REMARK  186  A    between atoms: _467  and  _468
REMARK  187  A    between atoms: _468  and  _469
REMARK  188  A    between atoms: _469  and  _470
REMARK  189  A    between atoms: _479  and  _481
REMARK  190  A    between atoms: _481  and  _482
REMARK  191  A    between atoms: _481  and  _484
REMARK  192  A    between atoms: _484  and  _485
REMARK  193  A    between atoms: _488  and  _490
REMARK  194  A    between atoms: _490  and  _491
REMARK  195  A    between atoms: _490  and  _493
REMARK  196  A    between atoms: _493  and  _494
REMARK  197  A    between atoms: _500  and  _502
REMARK  198  A    between atoms: _502  and  _503
REMARK  199  A    between atoms: _505  and  _507
REMARK  200  A    between atoms: _507  and  _508
REMARK  201  A    between atoms: _507  and  _510
REMARK  202  A    between atoms: _510  and  _511
REMARK  203  A    between atoms: _511  and  _512
REMARK  204  A    between atoms: _512  and  _513
REMARK  205  A    between atoms: _522  and  _524
REMARK  206  A    between atoms: _524  and  _525
REMARK  207  A    between atoms: _524  and  _527
REMARK  208  A    between atoms: _527  and  _528
REMARK  209  A    between atoms: _528  and  _529
REMARK  210  A    between atoms: _529  and  _530
REMARK  211  A    between atoms: _530  and  _531
REMARK  212  A    between atoms: _535  and  _537
REMARK  213  A    between atoms: _537  and  _538
REMARK  214  A    between atoms: _540  and  _542
REMARK  215  A    between atoms: _542  and  _543
REMARK  216  A    between atoms: _542  and  _545
REMARK  217  A    between atoms: _548  and  _550
REMARK  218  A    between atoms: _550  and  _551
REMARK  219  A    between atoms: _550  and  _553
REMARK  220  A    between atoms: _553  and  _554
REMARK  221  A    between atoms: _556  and  _558
REMARK  222  A    between atoms: _558  and  _559
REMARK  223  A    between atoms: _558  and  _561
REMARK  224  A    between atoms: _561  and  _562
REMARK  225  A    between atoms: _567  and  _569
REMARK  226  A    between atoms: _569  and  _570
REMARK  227  A    between atoms: _572  and  _574
REMARK  228  A    between atoms: _574  and  _575
REMARK  229  A    between atoms: _574  and  _577
REMARK  230  A    between atoms: _577  and  _578
REMARK  231  A    between atoms: _584  and  _586
REMARK  232  A    between atoms: _586  and  _587
REMARK  233  A    between atoms: _586  and  _589
REMARK  234  A    between atoms: _589  and  _590
REMARK  235  A    between atoms: _596  and  _598
REMARK  236  A    between atoms: _598  and  _599
REMARK  237  A    between atoms: _598  and  _601
REMARK  238  A    between atoms: _601  and  _602
REMARK  239  A    between atoms: _605  and  _607
REMARK  240  A    between atoms: _607  and  _608
REMARK  241  A    between atoms: _607  and  _610
REMARK  242  A    between atoms: _610  and  _611
REMARK  243  A    between atoms: _611  and  _612
REMARK  244  A    between atoms: _612  and  _613
REMARK  245  A    between atoms: _613  and  _614
REMARK  246  A    between atoms: _618  and  _620
REMARK  247  A    between atoms: _620  and  _621
REMARK  248  A    between atoms: _620  and  _623
REMARK  249  A    between atoms: _623  and  _624
REMARK  250  A    between atoms: _624  and  _625
REMARK  251  A    between atoms: _625  and  _626
REMARK                            x       y       z     vdW  Elec       q    Type
REMARK                         _______ _______ _______ _____ _____    ______ ____
ROOT
ATOM      1  O   HOH     1       4.719  22.638   2.611  0.00  0.00    +0.000 OA
ENDROOT
TORSDOF 0
REMARK  Name = ../refined-set-2016/2am4/2am4_pocket.pdb
REMARK  251 active torsions:
REMARK  status: ('A' for Active; 'I' for Inactive)
REMARK    1  A    between atoms: _1  and  _3
REMARK    2  A    between atoms: _3  and  _4
REMARK    3  A    between atoms: _3  and  _6
REMARK    4  A    between atoms: _6  and  _7
REMARK    5  A    between atoms: _10  and  _12
REMARK    6  A    between atoms: _12  and  _13
REMARK    7  A    between atoms: _12  and  _15
REMARK    8  A    between atoms: _18  and  _20
REMARK    9  A    between atoms: _20  and  _21
REMARK   10  A    between atoms: _20  and  _23
REMARK   11  A    between atoms: _23  and  _24
REMARK   12  A    between atoms: _27  and  _29
REMARK   13  A    between atoms: _29  and  _30
REMARK   14  A    between atoms: _33  and  _35
REMARK   15  A    between atoms: _35  and  _36
REMARK   16  A    between atoms: _35  and  _38
REMARK   17  A    between atoms: _38  and  _39
REMARK   18  A    between atoms: _39  and  _109
REMARK   19  A    between atoms: _40  and  _42
REMARK   20  A    between atoms: _42  and  _43
REMARK   21  A    between atoms: _42  and  _45
REMARK   22  A    between atoms: _45  and  _46
REMARK   23  A    between atoms: _49  and  _51
REMARK   24  A    between atoms: _51  and  _52
REMARK   25  A    between atoms: _51  and  _54
REMARK   26  A    between atoms: _54  and  _55
REMARK   27  A    between atoms: _55  and  _56
REMARK   28  A    between atoms: _56  and  _57
REMARK   29  A    between atoms: _66  and  _68
REMARK   30  A    between atoms: _68  and  _69
REMARK   31  A    between atoms: _68  and  _71
REMARK   32  A    between atoms: _74  and  _76
REMARK   33  A    between atoms: _76  and  _77
REMARK   34  A    between atoms: _76  and  _79
REMARK   35  A    between atoms: _79  and  _80
REMARK   36  A    between atoms: _82  and  _84
REMARK   37  A    between atoms: _84  and  _85
REMARK   38  A    between atoms: _84  and  _87
REMARK   39  A    between atoms: _87  and  _88
REMARK   40  A    between atoms: _88  and  _89
REMARK   41  A    between atoms: _94  and  _96
REMARK   42  A    between atoms: _96  and  _97
REMARK   43  A    between atoms: _96  and  _99
REMARK   44  A    between atoms: _99  and  _100
REMARK   45  A    between atoms: _103  and  _105
REMARK   46  A    between atoms: _105  and  _106
REMARK   47  A    between atoms: _105  and  _108
REMARK   48  A    between atoms: _108  and  _109
REMARK   49  A    between atoms: _110  and  _112
REMARK   50  A    between atoms: _112  and  _113
REMARK   51  A    between atoms: _115  and  _117
REMARK   52  A    between atoms: _117  and  _118
REMARK   53  A    between atoms: _117  and  _120
REMARK   54  A    between atoms: _120  and  _121
REMARK   55  A    between atoms: _124  and  _126
REMARK   56  A    between atoms: _126  and  _127
REMARK   57  A    between atoms: _126  and  _129
REMARK   58  A    between atoms: _129  and  _130
REMARK   59  A    between atoms: _130  and  _131
REMARK   60  A    between atoms: _136  and  _138
REMARK   61  A    between atoms: _138  and  _139
REMARK   62  A    between atoms: _138  and  _141
REMARK   63  A    between atoms: _141  and  _142
REMARK   64  A    between atoms: _145  and  _147
REMARK   65  A    between atoms: _147  and  _148
REMARK   66  A    between atoms: _147  and  _150
REMARK   67  A    between atoms: _150  and  _151
REMARK   68  A    between atoms: _154  and  _156
REMARK   69  A    between atoms: _156  and  _157
REMARK   70  A    between atoms: _156  and  _159
REMARK   71  A    between atoms: _159  and  _160
REMARK   72  A    between atoms: _166  and  _168
REMARK   73  A    between atoms: _168  and  _169
REMARK   74  A    between atoms: _168  and  _171
REMARK   75  A    between atoms: _171  and  _172
REMARK   76  A    between atoms: _172  and  _173
REMARK   77  A    between atoms: _178  and  _180
REMARK   78  A    between atoms: _180  and  _181
REMARK   79  A    between atoms: _183  and  _185
REMARK   80  A    between atoms: _185  and  _186
REMARK   81  A    between atoms: _185  and  _188
REMARK   82  A    between atoms: _188  and  _189
REMARK   83  A    between atoms: _194  and  _195
REMARK   84  A    between atoms: _197  and  _199
REMARK   85  A    between atoms: _199  and  _200
REMARK   86  A    between atoms: _199  and  _202
REMARK   87  A    between atoms: _202  and  _203
REMARK   88  A    between atoms: _208  and  _209
REMARK   89  A    between atoms: _211  and  _213
REMARK   90  A    between atoms: _213  and  _214
REMARK   91  A    between atoms: _213  and  _216
REMARK   92  A    between atoms: _216  and  _217
REMARK   93  A    between atoms: _217  and  _218
REMARK   94  A    between atoms: _218  and  _219
REMARK   95  A    between atoms: _219  and  _220
REMARK   96  A    between atoms: _224  and  _226
REMARK   97  A    between atoms: _226  and  _227
REMARK   98  A    between atoms: _226  and  _229
REMARK   99  A    between atoms: _229  and  _230
REMARK  100  A    between atoms: _233  and  _235
REMARK  101  A    between atoms: _235  and  _236
REMARK  102  A    between atoms: _239  and  _241
REMARK  103  A    between atoms: _241  and  _242
REMARK  104  A    between atoms: _241  and  _244
REMARK  105  A    between atoms: _244  and  _245
REMARK  106  A    between atoms: _245  and  _246
REMARK  107  A    between atoms: _246  and  _247
REMARK  108  A    between atoms: _256  and  _258
REMARK  109  A    between atoms: _258  and  _259
REMARK  110  A    between atoms: _258  and  _261
REMARK  111  A    between atoms: _261  and  _262
REMARK  112  A    between atoms: _267  and  _269
REMARK  113  A    between atoms: _269  and  _270
REMARK  114  A    between atoms: _269  and  _272
REMARK  115  A    between atoms: _272  and  _273
REMARK  116  A    between atoms: _278  and  _279
REMARK  117  A    between atoms: _281  and  _283
REMARK  118  A    between atoms: _283  and  _284
REMARK  119  A    between atoms: _287  and  _289
REMARK  120  A    between atoms: _289  and  _290
REMARK  121  A    between atoms: _289  and  _292
REMARK  122  A    between atoms: _295  and  _297
REMARK  123  A    between atoms: _297  and  _298
REMARK  124  A    between atoms: _297  and  _300
REMARK  125  A    between atoms: _303  and  _305
REMARK  126  A    between atoms: _305  and  _306
REMARK  127  A    between atoms: _305  and  _308
REMARK  128  A    between atoms: _308  and  _309
REMARK  129  A    between atoms: _309  and  _310
REMARK  130  A    between atoms: _313  and  _315
REMARK  131  A    between atoms: _315  and  _316
REMARK  132  A    between atoms: _315  and  _318
REMARK  133  A    between atoms: _318  and  _319
REMARK  134  A    between atoms: _322  and  _324
REMARK  135  A    between atoms: _324  and  _325
REMARK  136  A    between atoms: _324  and  _327
REMARK  137  A    between atoms: _327  and  _328
REMARK  138  A    between atoms: _328  and  _330
REMARK  139  A    between atoms: _330  and  MN_635
REMARK  140  A    between atoms: _331  and  _333
REMARK  141  A    between atoms: _333  and  _334
REMARK  142  A    between atoms: _333  and  _336
REMARK  143  A    between atoms: _336  and  _337
REMARK  144  A    between atoms: _340  and  _342
REMARK  145  A    between atoms: _342  and  _343
REMARK  146  A    between atoms: _342  and  _345
REMARK  147  A    between atoms: _345  and  _346
REMARK  148  A    between atoms: _353  and  _354
REMARK  149  A    between atoms: _359  and  _361
REMARK  150  A    between atoms: _361  and  _362
REMARK  151  A    between atoms: _364  and  _366
REMARK  152  A    between atoms: _366  and  _367
REMARK  153  A    between atoms: _366  and  _369
REMARK  154  A    between atoms: _369  and  _370
REMARK  155  A    between atoms: _373  and  _375
REMARK  156  A    between atoms: _375  and  _376
REMARK  157  A    between atoms: _378  and  _380
REMARK  158  A    between atoms: _380  and  _381
REMARK  159  A    between atoms: _380  and  _383
REMARK  160  A    between atoms: _383  and  _384
REMARK  161  A    between atoms: _394  and  _396
REMARK  162  A    between atoms: _396  and  _397
REMARK  163  A    between atoms: _400  and  _402
REMARK  164  A    between atoms: _402  and  _403
REMARK  165  A    between atoms: _402  and  _405
REMARK  166  A    between atoms: _405  and  _406
REMARK  167  A    between atoms: _412  and  _414
REMARK  168  A    between atoms: _414  and  _415
REMARK  169  A    between atoms: _414  and  _417
REMARK  170  A    between atoms: _417  and  _418
REMARK  171  A    between atoms: _428  and  _430
REMARK  172  A    between atoms: _430  and  _431
REMARK  173  A    between atoms: _430  and  _433
REMARK  174  A    between atoms: _433  and  _434
REMARK  175  A    between atoms: _437  and  _439
REMARK  176  A    between atoms: _439  and  _440
REMARK  177  A    between atoms: _439  and  _442
REMARK  178  A    between atoms: _442  and  _443
REMARK  179  A    between atoms: _446  and  _448
REMARK  180  A    between atoms: _448  and  _449
REMARK  181  A    between atoms: _448  and  _451
REMARK  182  A    between atoms: _451  and  _452
REMARK  183  A    between atoms: _462  and  _464
REMARK  184  A    between atoms: _464  and  _465
REMARK  185  A    between atoms: _464  and  _467
REMARK  186  A    between atoms: _467  and  _468
REMARK  187  A    between atoms: _468  and  _469
REMARK  188  A    between atoms: _469  and  _470
REMARK  189  A    between atoms: _479  and  _481
REMARK  190  A    between atoms: _481  and  _482
REMARK  191  A    between atoms: _481  and  _484
REMARK  192  A    between atoms: _484  and  _485
REMARK  193  A    between atoms: _488  and  _490
REMARK  194  A    between atoms: _490  and  _491
REMARK  195  A    between atoms: _490  and  _493
REMARK  196  A    between atoms: _493  and  _494
REMARK  197  A    between atoms: _500  and  _502
REMARK  198  A    between atoms: _502  and  _503
REMARK  199  A    between atoms: _505  and  _507
REMARK  200  A    between atoms: _507  and  _508
REMARK  201  A    between atoms: _507  and  _510
REMARK  202  A    between atoms: _510  and  _511
REMARK  203  A    between atoms: _511  and  _512
REMARK  204  A    between atoms: _512  and  _513
REMARK  205  A    between atoms: _522  and  _524
REMARK  206  A    between atoms: _524  and  _525
REMARK  207  A    between atoms: _524  and  _527
REMARK  208  A    between atoms: _527  and  _528
REMARK  209  A    between atoms: _528  and  _529
REMARK  210  A    between atoms: _529  and  _530
REMARK  211  A    between atoms: _530  and  _531
REMARK  212  A    between atoms: _535  and  _537
REMARK  213  A    between atoms: _537  and  _538
REMARK  214  A    between atoms: _540  and  _542
REMARK  215  A    between atoms: _542  and  _543
REMARK  216  A    between atoms: _542  and  _545
REMARK  217  A    between atoms: _548  and  _550
REMARK  218  A    between atoms: _550  and  _551
REMARK  219  A    between atoms: _550  and  _553
REMARK  220  A    between atoms: _553  and  _554
REMARK  221  A    between atoms: _556  and  _558
REMARK  222  A    between atoms: _558  and  _559
REMARK  223  A    between atoms: _558  and  _561
REMARK  224  A    between atoms: _561  and  _562
REMARK  225  A    between atoms: _567  and  _569
REMARK  226  A    between atoms: _569  and  _570
REMARK  227  A    between atoms: _572  and  _574
REMARK  228  A    between atoms: _574  and  _575
REMARK  229  A    between atoms: _574  and  _577
REMARK  230  A    between atoms: _577  and  _578
REMARK  231  A    between atoms: _584  and  _586
REMARK  232  A    between atoms: _586  and  _587
REMARK  233  A    between atoms: _586  and  _589
REMARK  234  A    between atoms: _589  and  _590
REMARK  235  A    between atoms: _596  and  _598
REMARK  236  A    between atoms: _598  and  _599
REMARK  237  A    between atoms: _598  and  _601
REMARK  238  A    between atoms: _601  and  _602
REMARK  239  A    between atoms: _605  and  _607
REMARK  240  A    between atoms: _607  and  _608
REMARK  241  A    between atoms: _607  and  _610
REMARK  242  A    between atoms: _610  and  _611
REMARK  243  A    between atoms: _611  and  _612
REMARK  244  A    between atoms: _612  and  _613
REMARK  245  A    between atoms: _613  and  _614
REMARK  246  A    between atoms: _618  and  _620
REMARK  247  A    between atoms: _620  and  _621
REMARK  248  A    between atoms: _620  and  _623
REMARK  249  A    between atoms: _623  and  _624
REMARK  250  A    between atoms: _624  and  _625
REMARK  251  A    between atoms: _625  and  _626
REMARK                            x       y       z     vdW  Elec       q    Type
REMARK                         _______ _______ _______ _____ _____    ______ ____
ROOT
ATOM      1  O   HOH     1      -2.122  23.701   2.275  0.00  0.00    +0.000 OA
ENDROOT
TORSDOF 0
REMARK  Name = ../refined-set-2016/2am4/2am4_pocket.pdb
REMARK  251 active torsions:
REMARK  status: ('A' for Active; 'I' for Inactive)
REMARK    1  A    between atoms: _1  and  _3
REMARK    2  A    between atoms: _3  and  _4
REMARK    3  A    between atoms: _3  and  _6
REMARK    4  A    between atoms: _6  and  _7
REMARK    5  A    between atoms: _10  and  _12
REMARK    6  A    between atoms: _12  and  _13
REMARK    7  A    between atoms: _12  and  _15
REMARK    8  A    between atoms: _18  and  _20
REMARK    9  A    between atoms: _20  and  _21
REMARK   10  A    between atoms: _20  and  _23
REMARK   11  A    between atoms: _23  and  _24
REMARK   12  A    between atoms: _27  and  _29
REMARK   13  A    between atoms: _29  and  _30
REMARK   14  A    between atoms: _33  and  _35
REMARK   15  A    between atoms: _35  and  _36
REMARK   16  A    between atoms: _35  and  _38
REMARK   17  A    between atoms: _38  and  _39
REMARK   18  A    between atoms: _39  and  _109
REMARK   19  A    between atoms: _40  and  _42
REMARK   20  A    between atoms: _42  and  _43
REMARK   21  A    between atoms: _42  and  _45
REMARK   22  A    between atoms: _45  and  _46
REMARK   23  A    between atoms: _49  and  _51
REMARK   24  A    between atoms: _51  and  _52
REMARK   25  A    between atoms: _51  and  _54
REMARK   26  A    between atoms: _54  and  _55
REMARK   27  A    between atoms: _55  and  _56
REMARK   28  A    between atoms: _56  and  _57
REMARK   29  A    between atoms: _66  and  _68
REMARK   30  A    between atoms: _68  and  _69
REMARK   31  A    between atoms: _68  and  _71
REMARK   32  A    between atoms: _74  and  _76
REMARK   33  A    between atoms: _76  and  _77
REMARK   34  A    between atoms: _76  and  _79
REMARK   35  A    between atoms: _79  and  _80
REMARK   36  A    between atoms: _82  and  _84
REMARK   37  A    between atoms: _84  and  _85
REMARK   38  A    between atoms: _84  and  _87
REMARK   39  A    between atoms: _87  and  _88
REMARK   40  A    between atoms: _88  and  _89
REMARK   41  A    between atoms: _94  and  _96
REMARK   42  A    between atoms: _96  and  _97
REMARK   43  A    between atoms: _96  and  _99
REMARK   44  A    between atoms: _99  and  _100
REMARK   45  A    between atoms: _103  and  _105
REMARK   46  A    between atoms: _105  and  _106
REMARK   47  A    between atoms: _105  and  _108
REMARK   48  A    between atoms: _108  and  _109
REMARK   49  A    between atoms: _110  and  _112
REMARK   50  A    between atoms: _112  and  _113
REMARK   51  A    between atoms: _115  and  _117
REMARK   52  A    between atoms: _117  and  _118
REMARK   53  A    between atoms: _117  and  _120
REMARK   54  A    between atoms: _120  and  _121
REMARK   55  A    between atoms: _124  and  _126
REMARK   56  A    between atoms: _126  and  _127
REMARK   57  A    between atoms: _126  and  _129
REMARK   58  A    between atoms: _129  and  _130
REMARK   59  A    between atoms: _130  and  _131
REMARK   60  A    between atoms: _136  and  _138
REMARK   61  A    between atoms: _138  and  _139
REMARK   62  A    between atoms: _138  and  _141
REMARK   63  A    between atoms: _141  and  _142
REMARK   64  A    between atoms: _145  and  _147
REMARK   65  A    between atoms: _147  and  _148
REMARK   66  A    between atoms: _147  and  _150
REMARK   67  A    between atoms: _150  and  _151
REMARK   68  A    between atoms: _154  and  _156
REMARK   69  A    between atoms: _156  and  _157
REMARK   70  A    between atoms: _156  and  _159
REMARK   71  A    between atoms: _159  and  _160
REMARK   72  A    between atoms: _166  and  _168
REMARK   73  A    between atoms: _168  and  _169
REMARK   74  A    between atoms: _168  and  _171
REMARK   75  A    between atoms: _171  and  _172
REMARK   76  A    between atoms: _172  and  _173
REMARK   77  A    between atoms: _178  and  _180
REMARK   78  A    between atoms: _180  and  _181
REMARK   79  A    between atoms: _183  and  _185
REMARK   80  A    between atoms: _185  and  _186
REMARK   81  A    between atoms: _185  and  _188
REMARK   82  A    between atoms: _188  and  _189
REMARK   83  A    between atoms: _194  and  _195
REMARK   84  A    between atoms: _197  and  _199
REMARK   85  A    between atoms: _199  and  _200
REMARK   86  A    between atoms: _199  and  _202
REMARK   87  A    between atoms: _202  and  _203
REMARK   88  A    between atoms: _208  and  _209
REMARK   89  A    between atoms: _211  and  _213
REMARK   90  A    between atoms: _213  and  _214
REMARK   91  A    between atoms: _213  and  _216
REMARK   92  A    between atoms: _216  and  _217
REMARK   93  A    between atoms: _217  and  _218
REMARK   94  A    between atoms: _218  and  _219
REMARK   95  A    between atoms: _219  and  _220
REMARK   96  A    between atoms: _224  and  _226
REMARK   97  A    between atoms: _226  and  _227
REMARK   98  A    between atoms: _226  and  _229
REMARK   99  A    between atoms: _229  and  _230
REMARK  100  A    between atoms: _233  and  _235
REMARK  101  A    between atoms: _235  and  _236
REMARK  102  A    between atoms: _239  and  _241
REMARK  103  A    between atoms: _241  and  _242
REMARK  104  A    between atoms: _241  and  _244
REMARK  105  A    between atoms: _244  and  _245
REMARK  106  A    between atoms: _245  and  _246
REMARK  107  A    between atoms: _246  and  _247
REMARK  108  A    between atoms: _256  and  _258
REMARK  109  A    between atoms: _258  and  _259
REMARK  110  A    between atoms: _258  and  _261
REMARK  111  A    between atoms: _261  and  _262
REMARK  112  A    between atoms: _267  and  _269
REMARK  113  A    between atoms: _269  and  _270
REMARK  114  A    between atoms: _269  and  _272
REMARK  115  A    between atoms: _272  and  _273
REMARK  116  A    between atoms: _278  and  _279
REMARK  117  A    between atoms: _281  and  _283
REMARK  118  A    between atoms: _283  and  _284
REMARK  119  A    between atoms: _287  and  _289
REMARK  120  A    between atoms: _289  and  _290
REMARK  121  A    between atoms: _289  and  _292
REMARK  122  A    between atoms: _295  and  _297
REMARK  123  A    between atoms: _297  and  _298
REMARK  124  A    between atoms: _297  and  _300
REMARK  125  A    between atoms: _303  and  _305
REMARK  126  A    between atoms: _305  and  _306
REMARK  127  A    between atoms: _305  and  _308
REMARK  128  A    between atoms: _308  and  _309
REMARK  129  A    between atoms: _309  and  _310
REMARK  130  A    between atoms: _313  and  _315
REMARK  131  A    between atoms: _315  and  _316
REMARK  132  A    between atoms: _315  and  _318
REMARK  133  A    between atoms: _318  and  _319
REMARK  134  A    between atoms: _322  and  _324
REMARK  135  A    between atoms: _324  and  _325
REMARK  136  A    between atoms: _324  and  _327
REMARK  137  A    between atoms: _327  and  _328
REMARK  138  A    between atoms: _328  and  _330
REMARK  139  A    between atoms: _330  and  MN_635
REMARK  140  A    between atoms: _331  and  _333
REMARK  141  A    between atoms: _333  and  _334
REMARK  142  A    between atoms: _333  and  _336
REMARK  143  A    between atoms: _336  and  _337
REMARK  144  A    between atoms: _340  and  _342
REMARK  145  A    between atoms: _342  and  _343
REMARK  146  A    between atoms: _342  and  _345
REMARK  147  A    between atoms: _345  and  _346
REMARK  148  A    between atoms: _353  and  _354
REMARK  149  A    between atoms: _359  and  _361
REMARK  150  A    between atoms: _361  and  _362
REMARK  151  A    between atoms: _364  and  _366
REMARK  152  A    between atoms: _366  and  _367
REMARK  153  A    between atoms: _366  and  _369
REMARK  154  A    between atoms: _369  and  _370
REMARK  155  A    between atoms: _373  and  _375
REMARK  156  A    between atoms: _375  and  _376
REMARK  157  A    between atoms: _378  and  _380
REMARK  158  A    between atoms: _380  and  _381
REMARK  159  A    between atoms: _380  and  _383
REMARK  160  A    between atoms: _383  and  _384
REMARK  161  A    between atoms: _394  and  _396
REMARK  162  A    between atoms: _396  and  _397
REMARK  163  A    between atoms: _400  and  _402
REMARK  164  A    between atoms: _402  and  _403
REMARK  165  A    between atoms: _402  and  _405
REMARK  166  A    between atoms: _405  and  _406
REMARK  167  A    between atoms: _412  and  _414
REMARK  168  A    between atoms: _414  and  _415
REMARK  169  A    between atoms: _414  and  _417
REMARK  170  A    between atoms: _417  and  _418
REMARK  171  A    between atoms: _428  and  _430
REMARK  172  A    between atoms: _430  and  _431
REMARK  173  A    between atoms: _430  and  _433
REMARK  174  A    between atoms: _433  and  _434
REMARK  175  A    between atoms: _437  and  _439
REMARK  176  A    between atoms: _439  and  _440
REMARK  177  A    between atoms: _439  and  _442
REMARK  178  A    between atoms: _442  and  _443
REMARK  179  A    between atoms: _446  and  _448
REMARK  180  A    between atoms: _448  and  _449
REMARK  181  A    between atoms: _448  and  _451
REMARK  182  A    between atoms: _451  and  _452
REMARK  183  A    between atoms: _462  and  _464
REMARK  184  A    between atoms: _464  and  _465
REMARK  185  A    between atoms: _464  and  _467
REMARK  186  A    between atoms: _467  and  _468
REMARK  187  A    between atoms: _468  and  _469
REMARK  188  A    between atoms: _469  and  _470
REMARK  189  A    between atoms: _479  and  _481
REMARK  190  A    between atoms: _481  and  _482
REMARK  191  A    between atoms: _481  and  _484
REMARK  192  A    between atoms: _484  and  _485
REMARK  193  A    between atoms: _488  and  _490
REMARK  194  A    between atoms: _490  and  _491
REMARK  195  A    between atoms: _490  and  _493
REMARK  196  A    between atoms: _493  and  _494
REMARK  197  A    between atoms: _500  and  _502
REMARK  198  A    between atoms: _502  and  _503
REMARK  199  A    between atoms: _505  and  _507
REMARK  200  A    between atoms: _507  and  _508
REMARK  201  A    between atoms: _507  and  _510
REMARK  202  A    between atoms: _510  and  _511
REMARK  203  A    between atoms: _511  and  _512
REMARK  204  A    between atoms: _512  and  _513
REMARK  205  A    between atoms: _522  and  _524
REMARK  206  A    between atoms: _524  and  _525
REMARK  207  A    between atoms: _524  and  _527
REMARK  208  A    between atoms: _527  and  _528
REMARK  209  A    between atoms: _528  and  _529
REMARK  210  A    between atoms: _529  and  _530
REMARK  211  A    between atoms: _530  and  _531
REMARK  212  A    between atoms: _535  and  _537
REMARK  213  A    between atoms: _537  and  _538
REMARK  214  A    between atoms: _540  and  _542
REMARK  215  A    between atoms: _542  and  _543
REMARK  216  A    between atoms: _542  and  _545
REMARK  217  A    between atoms: _548  and  _550
REMARK  218  A    between atoms: _550  and  _551
REMARK  219  A    between atoms: _550  and  _553
REMARK  220  A    between atoms: _553  and  _554
REMARK  221  A    between atoms: _556  and  _558
REMARK  222  A    between atoms: _558  and  _559
REMARK  223  A    between atoms: _558  and  _561
REMARK  224  A    between atoms: _561  and  _562
REMARK  225  A    between atoms: _567  and  _569
REMARK  226  A    between atoms: _569  and  _570
REMARK  227  A    between atoms: _572  and  _574
REMARK  228  A    between atoms: _574  and  _575
REMARK  229  A    between atoms: _574  and  _577
REMARK  230  A    between atoms: _577  and  _578
REMARK  231  A    between atoms: _584  and  _586
REMARK  232  A    between atoms: _586  and  _587
REMARK  233  A    between atoms: _586  and  _589
REMARK  234  A    between atoms: _589  and  _590
REMARK  235  A    between atoms: _596  and  _598
REMARK  236  A    between atoms: _598  and  _599
REMARK  237  A    between atoms: _598  and  _601
REMARK  238  A    between atoms: _601  and  _602
REMARK  239  A    between atoms: _605  and  _607
REMARK  240  A    between atoms: _607  and  _608
REMARK  241  A    between atoms: _607  and  _610
REMARK  242  A    between atoms: _610  and  _611
REMARK  243  A    between atoms: _611  and  _612
REMARK  244  A    between atoms: _612  and  _613
REMARK  245  A    between atoms: _613  and  _614
REMARK  246  A    between atoms: _618  and  _620
REMARK  247  A    between atoms: _620  and  _621
REMARK  248  A    between atoms: _620  and  _623
REMARK  249  A    between atoms: _623  and  _624
REMARK  250  A    between atoms: _624  and  _625
REMARK  251  A    between atoms: _625  and  _626
REMARK                            x       y       z     vdW  Elec       q    Type
REMARK                         _______ _______ _______ _____ _____    ______ ____
ROOT
ATOM      1  O   HOH     1      -3.567  25.629  -0.192  0.00  0.00    +0.000 OA
ENDROOT
TORSDOF 0
REMARK  Name = ../refined-set-2016/2am4/2am4_pocket.pdb
REMARK  251 active torsions:
REMARK  status: ('A' for Active; 'I' for Inactive)
REMARK    1  A    between atoms: _1  and  _3
REMARK    2  A    between atoms: _3  and  _4
REMARK    3  A    between atoms: _3  and  _6
REMARK    4  A    between atoms: _6  and  _7
REMARK    5  A    between atoms: _10  and  _12
REMARK    6  A    between atoms: _12  and  _13
REMARK    7  A    between atoms: _12  and  _15
REMARK    8  A    between atoms: _18  and  _20
REMARK    9  A    between atoms: _20  and  _21
REMARK   10  A    between atoms: _20  and  _23
REMARK   11  A    between atoms: _23  and  _24
REMARK   12  A    between atoms: _27  and  _29
REMARK   13  A    between atoms: _29  and  _30
REMARK   14  A    between atoms: _33  and  _35
REMARK   15  A    between atoms: _35  and  _36
REMARK   16  A    between atoms: _35  and  _38
REMARK   17  A    between atoms: _38  and  _39
REMARK   18  A    between atoms: _39  and  _109
REMARK   19  A    between atoms: _40  and  _42
REMARK   20  A    between atoms: _42  and  _43
REMARK   21  A    between atoms: _42  and  _45
REMARK   22  A    between atoms: _45  and  _46
REMARK   23  A    between atoms: _49  and  _51
REMARK   24  A    between atoms: _51  and  _52
REMARK   25  A    between atoms: _51  and  _54
REMARK   26  A    between atoms: _54  and  _55
REMARK   27  A    between atoms: _55  and  _56
REMARK   28  A    between atoms: _56  and  _57
REMARK   29  A    between atoms: _66  and  _68
REMARK   30  A    between atoms: _68  and  _69
REMARK   31  A    between atoms: _68  and  _71
REMARK   32  A    between atoms: _74  and  _76
REMARK   33  A    between atoms: _76  and  _77
REMARK   34  A    between atoms: _76  and  _79
REMARK   35  A    between atoms: _79  and  _80
REMARK   36  A    between atoms: _82  and  _84
REMARK   37  A    between atoms: _84  and  _85
REMARK   38  A    between atoms: _84  and  _87
REMARK   39  A    between atoms: _87  and  _88
REMARK   40  A    between atoms: _88  and  _89
REMARK   41  A    between atoms: _94  and  _96
REMARK   42  A    between atoms: _96  and  _97
REMARK   43  A    between atoms: _96  and  _99
REMARK   44  A    between atoms: _99  and  _100
REMARK   45  A    between atoms: _103  and  _105
REMARK   46  A    between atoms: _105  and  _106
REMARK   47  A    between atoms: _105  and  _108
REMARK   48  A    between atoms: _108  and  _109
REMARK   49  A    between atoms: _110  and  _112
REMARK   50  A    between atoms: _112  and  _113
REMARK   51  A    between atoms: _115  and  _117
REMARK   52  A    between atoms: _117  and  _118
REMARK   53  A    between atoms: _117  and  _120
REMARK   54  A    between atoms: _120  and  _121
REMARK   55  A    between atoms: _124  and  _126
REMARK   56  A    between atoms: _126  and  _127
REMARK   57  A    between atoms: _126  and  _129
REMARK   58  A    between atoms: _129  and  _130
REMARK   59  A    between atoms: _130  and  _131
REMARK   60  A    between atoms: _136  and  _138
REMARK   61  A    between atoms: _138  and  _139
REMARK   62  A    between atoms: _138  and  _141
REMARK   63  A    between atoms: _141  and  _142
REMARK   64  A    between atoms: _145  and  _147
REMARK   65  A    between atoms: _147  and  _148
REMARK   66  A    between atoms: _147  and  _150
REMARK   67  A    between atoms: _150  and  _151
REMARK   68  A    between atoms: _154  and  _156
REMARK   69  A    between atoms: _156  and  _157
REMARK   70  A    between atoms: _156  and  _159
REMARK   71  A    between atoms: _159  and  _160
REMARK   72  A    between atoms: _166  and  _168
REMARK   73  A    between atoms: _168  and  _169
REMARK   74  A    between atoms: _168  and  _171
REMARK   75  A    between atoms: _171  and  _172
REMARK   76  A    between atoms: _172  and  _173
REMARK   77  A    between atoms: _178  and  _180
REMARK   78  A    between atoms: _180  and  _181
REMARK   79  A    between atoms: _183  and  _185
REMARK   80  A    between atoms: _185  and  _186
REMARK   81  A    between atoms: _185  and  _188
REMARK   82  A    between atoms: _188  and  _189
REMARK   83  A    between atoms: _194  and  _195
REMARK   84  A    between atoms: _197  and  _199
REMARK   85  A    between atoms: _199  and  _200
REMARK   86  A    between atoms: _199  and  _202
REMARK   87  A    between atoms: _202  and  _203
REMARK   88  A    between atoms: _208  and  _209
REMARK   89  A    between atoms: _211  and  _213
REMARK   90  A    between atoms: _213  and  _214
REMARK   91  A    between atoms: _213  and  _216
REMARK   92  A    between atoms: _216  and  _217
REMARK   93  A    between atoms: _217  and  _218
REMARK   94  A    between atoms: _218  and  _219
REMARK   95  A    between atoms: _219  and  _220
REMARK   96  A    between atoms: _224  and  _226
REMARK   97  A    between atoms: _226  and  _227
REMARK   98  A    between atoms: _226  and  _229
REMARK   99  A    between atoms: _229  and  _230
REMARK  100  A    between atoms: _233  and  _235
REMARK  101  A    between atoms: _235  and  _236
REMARK  102  A    between atoms: _239  and  _241
REMARK  103  A    between atoms: _241  and  _242
REMARK  104  A    between atoms: _241  and  _244
REMARK  105  A    between atoms: _244  and  _245
REMARK  106  A    between atoms: _245  and  _246
REMARK  107  A    between atoms: _246  and  _247
REMARK  108  A    between atoms: _256  and  _258
REMARK  109  A    between atoms: _258  and  _259
REMARK  110  A    between atoms: _258  and  _261
REMARK  111  A    between atoms: _261  and  _262
REMARK  112  A    between atoms: _267  and  _269
REMARK  113  A    between atoms: _269  and  _270
REMARK  114  A    between atoms: _269  and  _272
REMARK  115  A    between atoms: _272  and  _273
REMARK  116  A    between atoms: _278  and  _279
REMARK  117  A    between atoms: _281  and  _283
REMARK  118  A    between atoms: _283  and  _284
REMARK  119  A    between atoms: _287  and  _289
REMARK  120  A    between atoms: _289  and  _290
REMARK  121  A    between atoms: _289  and  _292
REMARK  122  A    between atoms: _295  and  _297
REMARK  123  A    between atoms: _297  and  _298
REMARK  124  A    between atoms: _297  and  _300
REMARK  125  A    between atoms: _303  and  _305
REMARK  126  A    between atoms: _305  and  _306
REMARK  127  A    between atoms: _305  and  _308
REMARK  128  A    between atoms: _308  and  _309
REMARK  129  A    between atoms: _309  and  _310
REMARK  130  A    between atoms: _313  and  _315
REMARK  131  A    between atoms: _315  and  _316
REMARK  132  A    between atoms: _315  and  _318
REMARK  133  A    between atoms: _318  and  _319
REMARK  134  A    between atoms: _322  and  _324
REMARK  135  A    between atoms: _324  and  _325
REMARK  136  A    between atoms: _324  and  _327
REMARK  137  A    between atoms: _327  and  _328
REMARK  138  A    between atoms: _328  and  _330
REMARK  139  A    between atoms: _330  and  MN_635
REMARK  140  A    between atoms: _331  and  _333
REMARK  141  A    between atoms: _333  and  _334
REMARK  142  A    between atoms: _333  and  _336
REMARK  143  A    between atoms: _336  and  _337
REMARK  144  A    between atoms: _340  and  _342
REMARK  145  A    between atoms: _342  and  _343
REMARK  146  A    between atoms: _342  and  _345
REMARK  147  A    between atoms: _345  and  _346
REMARK  148  A    between atoms: _353  and  _354
REMARK  149  A    between atoms: _359  and  _361
REMARK  150  A    between atoms: _361  and  _362
REMARK  151  A    between atoms: _364  and  _366
REMARK  152  A    between atoms: _366  and  _367
REMARK  153  A    between atoms: _366  and  _369
REMARK  154  A    between atoms: _369  and  _370
REMARK  155  A    between atoms: _373  and  _375
REMARK  156  A    between atoms: _375  and  _376
REMARK  157  A    between atoms: _378  and  _380
REMARK  158  A    between atoms: _380  and  _381
REMARK  159  A    between atoms: _380  and  _383
REMARK  160  A    between atoms: _383  and  _384
REMARK  161  A    between atoms: _394  and  _396
REMARK  162  A    between atoms: _396  and  _397
REMARK  163  A    between atoms: _400  and  _402
REMARK  164  A    between atoms: _402  and  _403
REMARK  165  A    between atoms: _402  and  _405
REMARK  166  A    between atoms: _405  and  _406
REMARK  167  A    between atoms: _412  and  _414
REMARK  168  A    between atoms: _414  and  _415
REMARK  169  A    between atoms: _414  and  _417
REMARK  170  A    between atoms: _417  and  _418
REMARK  171  A    between atoms: _428  and  _430
REMARK  172  A    between atoms: _430  and  _431
REMARK  173  A    between atoms: _430  and  _433
REMARK  174  A    between atoms: _433  and  _434
REMARK  175  A    between atoms: _437  and  _439
REMARK  176  A    between atoms: _439  and  _440
REMARK  177  A    between atoms: _439  and  _442
REMARK  178  A    between atoms: _442  and  _443
REMARK  179  A    between atoms: _446  and  _448
REMARK  180  A    between atoms: _448  and  _449
REMARK  181  A    between atoms: _448  and  _451
REMARK  182  A    between atoms: _451  and  _452
REMARK  183  A    between atoms: _462  and  _464
REMARK  184  A    between atoms: _464  and  _465
REMARK  185  A    between atoms: _464  and  _467
REMARK  186  A    between atoms: _467  and  _468
REMARK  187  A    between atoms: _468  and  _469
REMARK  188  A    between atoms: _469  and  _470
REMARK  189  A    between atoms: _479  and  _481
REMARK  190  A    between atoms: _481  and  _482
REMARK  191  A    between atoms: _481  and  _484
REMARK  192  A    between atoms: _484  and  _485
REMARK  193  A    between atoms: _488  and  _490
REMARK  194  A    between atoms: _490  and  _491
REMARK  195  A    between atoms: _490  and  _493
REMARK  196  A    between atoms: _493  and  _494
REMARK  197  A    between atoms: _500  and  _502
REMARK  198  A    between atoms: _502  and  _503
REMARK  199  A    between atoms: _505  and  _507
REMARK  200  A    between atoms: _507  and  _508
REMARK  201  A    between atoms: _507  and  _510
REMARK  202  A    between atoms: _510  and  _511
REMARK  203  A    between atoms: _511  and  _512
REMARK  204  A    between atoms: _512  and  _513
REMARK  205  A    between atoms: _522  and  _524
REMARK  206  A    between atoms: _524  and  _525
REMARK  207  A    between atoms: _524  and  _527
REMARK  208  A    between atoms: _527  and  _528
REMARK  209  A    between atoms: _528  and  _529
REMARK  210  A    between atoms: _529  and  _530
REMARK  211  A    between atoms: _530  and  _531
REMARK  212  A    between atoms: _535  and  _537
REMARK  213  A    between atoms: _537  and  _538
REMARK  214  A    between atoms: _540  and  _542
REMARK  215  A    between atoms: _542  and  _543
REMARK  216  A    between atoms: _542  and  _545
REMARK  217  A    between atoms: _548  and  _550
REMARK  218  A    between atoms: _550  and  _551
REMARK  219  A    between atoms: _550  and  _553
REMARK  220  A    between atoms: _553  and  _554
REMARK  221  A    between atoms: _556  and  _558
REMARK  222  A    between atoms: _558  and  _559
REMARK  223  A    between atoms: _558  and  _561
REMARK  224  A    between atoms: _561  and  _562
REMARK  225  A    between atoms: _567  and  _569
REMARK  226  A    between atoms: _569  and  _570
REMARK  227  A    between atoms: _572  and  _574
REMARK  228  A    between atoms: _574  and  _575
REMARK  229  A    between atoms: _574  and  _577
REMARK  230  A    between atoms: _577  and  _578
REMARK  231  A    between atoms: _584  and  _586
REMARK  232  A    between atoms: _586  and  _587
REMARK  233  A    between atoms: _586  and  _589
REMARK  234  A    between atoms: _589  and  _590
REMARK  235  A    between atoms: _596  and  _598
REMARK  236  A    between atoms: _598  and  _599
REMARK  237  A    between atoms: _598  and  _601
REMARK  238  A    between atoms: _601  and  _602
REMARK  239  A    between atoms: _605  and  _607
REMARK  240  A    between atoms: _607  and  _608
REMARK  241  A    between atoms: _607  and  _610
REMARK  242  A    between atoms: _610  and  _611
REMARK  243  A    between atoms: _611  and  _612
REMARK  244  A    between atoms: _612  and  _613
REMARK  245  A    between atoms: _613  and  _614
REMARK  246  A    between atoms: _618  and  _620
REMARK  247  A    between atoms: _620  and  _621
REMARK  248  A    between atoms: _620  and  _623
REMARK  249  A    between atoms: _623  and  _624
REMARK  250  A    between atoms: _624  and  _625
REMARK  251  A    between atoms: _625  and  _626
REMARK                            x       y       z     vdW  Elec       q    Type
REMARK                         _______ _______ _______ _____ _____    ______ ____
ROOT
ATOM      1  O   HOH     1      13.408  20.649   9.240  0.00  0.00    +0.000 OA
ENDROOT
TORSDOF 0
